* NGSPICE file created from DSP.ext - technology: sky130A

* Black-box entry subcircuit for sky130_fd_sc_hd__dlxbp_1 abstract view
.subckt sky130_fd_sc_hd__dlxbp_1 D GATE VGND VNB VPB VPWR Q Q_N
.ends

* Black-box entry subcircuit for sky130_fd_sc_hd__fill_1 abstract view
.subckt sky130_fd_sc_hd__fill_1 VGND VNB VPB VPWR
.ends

* Black-box entry subcircuit for sky130_fd_sc_hd__decap_6 abstract view
.subckt sky130_fd_sc_hd__decap_6 VGND VNB VPB VPWR
.ends

* Black-box entry subcircuit for sky130_fd_sc_hd__clkbuf_1 abstract view
.subckt sky130_fd_sc_hd__clkbuf_1 A VGND VNB VPB VPWR X
.ends

* Black-box entry subcircuit for sky130_ef_sc_hd__decap_12 abstract view
.subckt sky130_ef_sc_hd__decap_12 VGND VNB VPB VPWR
.ends

* Black-box entry subcircuit for sky130_fd_sc_hd__fill_2 abstract view
.subckt sky130_fd_sc_hd__fill_2 VGND VNB VPB VPWR
.ends

* Black-box entry subcircuit for sky130_fd_sc_hd__diode_2 abstract view
.subckt sky130_fd_sc_hd__diode_2 DIODE VGND VNB VPB VPWR
.ends

* Black-box entry subcircuit for sky130_fd_sc_hd__inv_2 abstract view
.subckt sky130_fd_sc_hd__inv_2 A VGND VNB VPB VPWR Y
.ends

* Black-box entry subcircuit for sky130_fd_sc_hd__decap_8 abstract view
.subckt sky130_fd_sc_hd__decap_8 VGND VNB VPB VPWR
.ends

* Black-box entry subcircuit for sky130_fd_sc_hd__o211a_2 abstract view
.subckt sky130_fd_sc_hd__o211a_2 A1 A2 B1 C1 VGND VNB VPB VPWR X
.ends

* Black-box entry subcircuit for sky130_fd_sc_hd__clkbuf_4 abstract view
.subckt sky130_fd_sc_hd__clkbuf_4 A VGND VNB VPB VPWR X
.ends

* Black-box entry subcircuit for sky130_fd_sc_hd__buf_2 abstract view
.subckt sky130_fd_sc_hd__buf_2 A VGND VNB VPB VPWR X
.ends

* Black-box entry subcircuit for sky130_fd_sc_hd__buf_12 abstract view
.subckt sky130_fd_sc_hd__buf_12 A VGND VNB VPB VPWR X
.ends

* Black-box entry subcircuit for sky130_fd_sc_hd__decap_4 abstract view
.subckt sky130_fd_sc_hd__decap_4 VGND VNB VPB VPWR
.ends

* Black-box entry subcircuit for sky130_fd_sc_hd__tapvpwrvgnd_1 abstract view
.subckt sky130_fd_sc_hd__tapvpwrvgnd_1 VGND VPWR
.ends

* Black-box entry subcircuit for sky130_fd_sc_hd__nand2_1 abstract view
.subckt sky130_fd_sc_hd__nand2_1 A B VGND VNB VPB VPWR Y
.ends

* Black-box entry subcircuit for sky130_fd_sc_hd__mux4_1 abstract view
.subckt sky130_fd_sc_hd__mux4_1 A0 A1 A2 A3 S0 S1 VGND VNB VPB VPWR X
.ends

* Black-box entry subcircuit for sky130_fd_sc_hd__dfxtp_1 abstract view
.subckt sky130_fd_sc_hd__dfxtp_1 CLK D VGND VNB VPB VPWR Q
.ends

* Black-box entry subcircuit for sky130_fd_sc_hd__a21oi_1 abstract view
.subckt sky130_fd_sc_hd__a21oi_1 A1 A2 B1 VGND VNB VPB VPWR Y
.ends

* Black-box entry subcircuit for sky130_fd_sc_hd__decap_3 abstract view
.subckt sky130_fd_sc_hd__decap_3 VGND VNB VPB VPWR
.ends

* Black-box entry subcircuit for sky130_fd_sc_hd__mux2_1 abstract view
.subckt sky130_fd_sc_hd__mux2_1 A0 A1 S VGND VNB VPB VPWR X
.ends

* Black-box entry subcircuit for sky130_fd_sc_hd__mux4_2 abstract view
.subckt sky130_fd_sc_hd__mux4_2 A0 A1 A2 A3 S0 S1 VGND VNB VPB VPWR X
.ends

* Black-box entry subcircuit for sky130_fd_sc_hd__nand2_2 abstract view
.subckt sky130_fd_sc_hd__nand2_2 A B VGND VNB VPB VPWR Y
.ends

* Black-box entry subcircuit for sky130_fd_sc_hd__a21oi_2 abstract view
.subckt sky130_fd_sc_hd__a21oi_2 A1 A2 B1 VGND VNB VPB VPWR Y
.ends

* Black-box entry subcircuit for sky130_fd_sc_hd__clkbuf_2 abstract view
.subckt sky130_fd_sc_hd__clkbuf_2 A VGND VNB VPB VPWR X
.ends

* Black-box entry subcircuit for sky130_fd_sc_hd__buf_1 abstract view
.subckt sky130_fd_sc_hd__buf_1 A VGND VNB VPB VPWR X
.ends

* Black-box entry subcircuit for sky130_fd_sc_hd__o21bai_2 abstract view
.subckt sky130_fd_sc_hd__o21bai_2 A1 A2 B1_N VGND VNB VPB VPWR Y
.ends

* Black-box entry subcircuit for sky130_fd_sc_hd__o32ai_4 abstract view
.subckt sky130_fd_sc_hd__o32ai_4 A1 A2 A3 B1 B2 VGND VNB VPB VPWR Y
.ends

* Black-box entry subcircuit for sky130_fd_sc_hd__a22o_1 abstract view
.subckt sky130_fd_sc_hd__a22o_1 A1 A2 B1 B2 VGND VNB VPB VPWR X
.ends

* Black-box entry subcircuit for sky130_fd_sc_hd__o21ai_1 abstract view
.subckt sky130_fd_sc_hd__o21ai_1 A1 A2 B1 VGND VNB VPB VPWR Y
.ends

* Black-box entry subcircuit for sky130_fd_sc_hd__o31a_1 abstract view
.subckt sky130_fd_sc_hd__o31a_1 A1 A2 A3 B1 VGND VNB VPB VPWR X
.ends

* Black-box entry subcircuit for sky130_fd_sc_hd__buf_6 abstract view
.subckt sky130_fd_sc_hd__buf_6 A VGND VNB VPB VPWR X
.ends

* Black-box entry subcircuit for sky130_fd_sc_hd__buf_4 abstract view
.subckt sky130_fd_sc_hd__buf_4 A VGND VNB VPB VPWR X
.ends

* Black-box entry subcircuit for sky130_fd_sc_hd__nand3_4 abstract view
.subckt sky130_fd_sc_hd__nand3_4 A B C VGND VNB VPB VPWR Y
.ends

* Black-box entry subcircuit for sky130_fd_sc_hd__xor2_1 abstract view
.subckt sky130_fd_sc_hd__xor2_1 A B VGND VNB VPB VPWR X
.ends

* Black-box entry subcircuit for sky130_fd_sc_hd__o21ai_4 abstract view
.subckt sky130_fd_sc_hd__o21ai_4 A1 A2 B1 VGND VNB VPB VPWR Y
.ends

* Black-box entry subcircuit for sky130_fd_sc_hd__o21ai_2 abstract view
.subckt sky130_fd_sc_hd__o21ai_2 A1 A2 B1 VGND VNB VPB VPWR Y
.ends

* Black-box entry subcircuit for sky130_fd_sc_hd__buf_8 abstract view
.subckt sky130_fd_sc_hd__buf_8 A VGND VNB VPB VPWR X
.ends

* Black-box entry subcircuit for sky130_fd_sc_hd__a21o_1 abstract view
.subckt sky130_fd_sc_hd__a21o_1 A1 A2 B1 VGND VNB VPB VPWR X
.ends

* Black-box entry subcircuit for sky130_fd_sc_hd__a22oi_4 abstract view
.subckt sky130_fd_sc_hd__a22oi_4 A1 A2 B1 B2 VGND VNB VPB VPWR Y
.ends

* Black-box entry subcircuit for sky130_fd_sc_hd__or2_1 abstract view
.subckt sky130_fd_sc_hd__or2_1 A B VGND VNB VPB VPWR X
.ends

* Black-box entry subcircuit for sky130_fd_sc_hd__a221o_1 abstract view
.subckt sky130_fd_sc_hd__a221o_1 A1 A2 B1 B2 C1 VGND VNB VPB VPWR X
.ends

* Black-box entry subcircuit for sky130_fd_sc_hd__o211ai_2 abstract view
.subckt sky130_fd_sc_hd__o211ai_2 A1 A2 B1 C1 VGND VNB VPB VPWR Y
.ends

* Black-box entry subcircuit for sky130_fd_sc_hd__or3_1 abstract view
.subckt sky130_fd_sc_hd__or3_1 A B C VGND VNB VPB VPWR X
.ends

* Black-box entry subcircuit for sky130_fd_sc_hd__and4_1 abstract view
.subckt sky130_fd_sc_hd__and4_1 A B C D VGND VNB VPB VPWR X
.ends

* Black-box entry subcircuit for sky130_fd_sc_hd__o21a_1 abstract view
.subckt sky130_fd_sc_hd__o21a_1 A1 A2 B1 VGND VNB VPB VPWR X
.ends

* Black-box entry subcircuit for sky130_fd_sc_hd__a221oi_4 abstract view
.subckt sky130_fd_sc_hd__a221oi_4 A1 A2 B1 B2 C1 VGND VNB VPB VPWR Y
.ends

* Black-box entry subcircuit for sky130_fd_sc_hd__a21boi_2 abstract view
.subckt sky130_fd_sc_hd__a21boi_2 A1 A2 B1_N VGND VNB VPB VPWR Y
.ends

* Black-box entry subcircuit for sky130_fd_sc_hd__o311a_1 abstract view
.subckt sky130_fd_sc_hd__o311a_1 A1 A2 A3 B1 C1 VGND VNB VPB VPWR X
.ends

* Black-box entry subcircuit for sky130_fd_sc_hd__and2_1 abstract view
.subckt sky130_fd_sc_hd__and2_1 A B VGND VNB VPB VPWR X
.ends

* Black-box entry subcircuit for sky130_fd_sc_hd__xnor2_1 abstract view
.subckt sky130_fd_sc_hd__xnor2_1 A B VGND VNB VPB VPWR Y
.ends

* Black-box entry subcircuit for sky130_fd_sc_hd__and2_2 abstract view
.subckt sky130_fd_sc_hd__and2_2 A B VGND VNB VPB VPWR X
.ends

* Black-box entry subcircuit for sky130_fd_sc_hd__dlymetal6s2s_1 abstract view
.subckt sky130_fd_sc_hd__dlymetal6s2s_1 A VGND VNB VPB VPWR X
.ends

* Black-box entry subcircuit for sky130_fd_sc_hd__nand4_4 abstract view
.subckt sky130_fd_sc_hd__nand4_4 A B C D VGND VNB VPB VPWR Y
.ends

* Black-box entry subcircuit for sky130_fd_sc_hd__and2b_1 abstract view
.subckt sky130_fd_sc_hd__and2b_1 A_N B VGND VNB VPB VPWR X
.ends

* Black-box entry subcircuit for sky130_fd_sc_hd__nand3_1 abstract view
.subckt sky130_fd_sc_hd__nand3_1 A B C VGND VNB VPB VPWR Y
.ends

* Black-box entry subcircuit for sky130_fd_sc_hd__o211ai_4 abstract view
.subckt sky130_fd_sc_hd__o211ai_4 A1 A2 B1 C1 VGND VNB VPB VPWR Y
.ends

* Black-box entry subcircuit for sky130_fd_sc_hd__o2bb2ai_2 abstract view
.subckt sky130_fd_sc_hd__o2bb2ai_2 A1_N A2_N B1 B2 VGND VNB VPB VPWR Y
.ends

* Black-box entry subcircuit for sky130_fd_sc_hd__o2111ai_4 abstract view
.subckt sky130_fd_sc_hd__o2111ai_4 A1 A2 B1 C1 D1 VGND VNB VPB VPWR Y
.ends

* Black-box entry subcircuit for sky130_fd_sc_hd__o2bb2ai_1 abstract view
.subckt sky130_fd_sc_hd__o2bb2ai_1 A1_N A2_N B1 B2 VGND VNB VPB VPWR Y
.ends

* Black-box entry subcircuit for sky130_fd_sc_hd__a21o_2 abstract view
.subckt sky130_fd_sc_hd__a21o_2 A1 A2 B1 VGND VNB VPB VPWR X
.ends

* Black-box entry subcircuit for sky130_fd_sc_hd__nor2b_4 abstract view
.subckt sky130_fd_sc_hd__nor2b_4 A B_N VGND VNB VPB VPWR Y
.ends

* Black-box entry subcircuit for sky130_fd_sc_hd__nand4_1 abstract view
.subckt sky130_fd_sc_hd__nand4_1 A B C D VGND VNB VPB VPWR Y
.ends

* Black-box entry subcircuit for sky130_fd_sc_hd__a21oi_4 abstract view
.subckt sky130_fd_sc_hd__a21oi_4 A1 A2 B1 VGND VNB VPB VPWR Y
.ends

* Black-box entry subcircuit for sky130_fd_sc_hd__xor2_2 abstract view
.subckt sky130_fd_sc_hd__xor2_2 A B VGND VNB VPB VPWR X
.ends

* Black-box entry subcircuit for sky130_fd_sc_hd__nor2_1 abstract view
.subckt sky130_fd_sc_hd__nor2_1 A B VGND VNB VPB VPWR Y
.ends

* Black-box entry subcircuit for sky130_fd_sc_hd__a221o_2 abstract view
.subckt sky130_fd_sc_hd__a221o_2 A1 A2 B1 B2 C1 VGND VNB VPB VPWR X
.ends

* Black-box entry subcircuit for sky130_fd_sc_hd__and3_2 abstract view
.subckt sky130_fd_sc_hd__and3_2 A B C VGND VNB VPB VPWR X
.ends

* Black-box entry subcircuit for sky130_fd_sc_hd__clkbuf_8 abstract view
.subckt sky130_fd_sc_hd__clkbuf_8 A VGND VNB VPB VPWR X
.ends

* Black-box entry subcircuit for sky130_fd_sc_hd__a31o_4 abstract view
.subckt sky130_fd_sc_hd__a31o_4 A1 A2 A3 B1 VGND VNB VPB VPWR X
.ends

* Black-box entry subcircuit for sky130_fd_sc_hd__o22a_1 abstract view
.subckt sky130_fd_sc_hd__o22a_1 A1 A2 B1 B2 VGND VNB VPB VPWR X
.ends

* Black-box entry subcircuit for sky130_fd_sc_hd__o2bb2ai_4 abstract view
.subckt sky130_fd_sc_hd__o2bb2ai_4 A1_N A2_N B1 B2 VGND VNB VPB VPWR Y
.ends

* Black-box entry subcircuit for sky130_fd_sc_hd__o221a_1 abstract view
.subckt sky130_fd_sc_hd__o221a_1 A1 A2 B1 B2 C1 VGND VNB VPB VPWR X
.ends

* Black-box entry subcircuit for sky130_fd_sc_hd__nor3_1 abstract view
.subckt sky130_fd_sc_hd__nor3_1 A B C VGND VNB VPB VPWR Y
.ends

* Black-box entry subcircuit for sky130_fd_sc_hd__a2bb2oi_1 abstract view
.subckt sky130_fd_sc_hd__a2bb2oi_1 A1_N A2_N B1 B2 VGND VNB VPB VPWR Y
.ends

* Black-box entry subcircuit for sky130_fd_sc_hd__o221ai_4 abstract view
.subckt sky130_fd_sc_hd__o221ai_4 A1 A2 B1 B2 C1 VGND VNB VPB VPWR Y
.ends

* Black-box entry subcircuit for sky130_fd_sc_hd__o22ai_4 abstract view
.subckt sky130_fd_sc_hd__o22ai_4 A1 A2 B1 B2 VGND VNB VPB VPWR Y
.ends

* Black-box entry subcircuit for sky130_fd_sc_hd__nor4_1 abstract view
.subckt sky130_fd_sc_hd__nor4_1 A B C D VGND VNB VPB VPWR Y
.ends

* Black-box entry subcircuit for sky130_fd_sc_hd__nand3b_2 abstract view
.subckt sky130_fd_sc_hd__nand3b_2 A_N B C VGND VNB VPB VPWR Y
.ends

* Black-box entry subcircuit for sky130_fd_sc_hd__and3_1 abstract view
.subckt sky130_fd_sc_hd__and3_1 A B C VGND VNB VPB VPWR X
.ends

* Black-box entry subcircuit for sky130_fd_sc_hd__a221oi_1 abstract view
.subckt sky130_fd_sc_hd__a221oi_1 A1 A2 B1 B2 C1 VGND VNB VPB VPWR Y
.ends

* Black-box entry subcircuit for sky130_fd_sc_hd__or4_1 abstract view
.subckt sky130_fd_sc_hd__or4_1 A B C D VGND VNB VPB VPWR X
.ends

* Black-box entry subcircuit for sky130_fd_sc_hd__o41ai_2 abstract view
.subckt sky130_fd_sc_hd__o41ai_2 A1 A2 A3 A4 B1 VGND VNB VPB VPWR Y
.ends

* Black-box entry subcircuit for sky130_fd_sc_hd__o211a_1 abstract view
.subckt sky130_fd_sc_hd__o211a_1 A1 A2 B1 C1 VGND VNB VPB VPWR X
.ends

* Black-box entry subcircuit for sky130_fd_sc_hd__a41oi_4 abstract view
.subckt sky130_fd_sc_hd__a41oi_4 A1 A2 A3 A4 B1 VGND VNB VPB VPWR Y
.ends

* Black-box entry subcircuit for sky130_fd_sc_hd__nand3_2 abstract view
.subckt sky130_fd_sc_hd__nand3_2 A B C VGND VNB VPB VPWR Y
.ends

* Black-box entry subcircuit for sky130_fd_sc_hd__a21boi_4 abstract view
.subckt sky130_fd_sc_hd__a21boi_4 A1 A2 B1_N VGND VNB VPB VPWR Y
.ends

* Black-box entry subcircuit for sky130_fd_sc_hd__clkbuf_16 abstract view
.subckt sky130_fd_sc_hd__clkbuf_16 A VGND VNB VPB VPWR X
.ends

* Black-box entry subcircuit for sky130_fd_sc_hd__o21bai_4 abstract view
.subckt sky130_fd_sc_hd__o21bai_4 A1 A2 B1_N VGND VNB VPB VPWR Y
.ends

* Black-box entry subcircuit for sky130_fd_sc_hd__o2bb2a_2 abstract view
.subckt sky130_fd_sc_hd__o2bb2a_2 A1_N A2_N B1 B2 VGND VNB VPB VPWR X
.ends

* Black-box entry subcircuit for sky130_fd_sc_hd__o21a_2 abstract view
.subckt sky130_fd_sc_hd__o21a_2 A1 A2 B1 VGND VNB VPB VPWR X
.ends

* Black-box entry subcircuit for sky130_fd_sc_hd__a41o_1 abstract view
.subckt sky130_fd_sc_hd__a41o_1 A1 A2 A3 A4 B1 VGND VNB VPB VPWR X
.ends

* Black-box entry subcircuit for sky130_fd_sc_hd__or2b_2 abstract view
.subckt sky130_fd_sc_hd__or2b_2 A B_N VGND VNB VPB VPWR X
.ends

* Black-box entry subcircuit for sky130_fd_sc_hd__o2111ai_1 abstract view
.subckt sky130_fd_sc_hd__o2111ai_1 A1 A2 B1 C1 D1 VGND VNB VPB VPWR Y
.ends

* Black-box entry subcircuit for sky130_fd_sc_hd__a21bo_4 abstract view
.subckt sky130_fd_sc_hd__a21bo_4 A1 A2 B1_N VGND VNB VPB VPWR X
.ends

* Black-box entry subcircuit for sky130_fd_sc_hd__or2_2 abstract view
.subckt sky130_fd_sc_hd__or2_2 A B VGND VNB VPB VPWR X
.ends

* Black-box entry subcircuit for sky130_fd_sc_hd__a31o_1 abstract view
.subckt sky130_fd_sc_hd__a31o_1 A1 A2 A3 B1 VGND VNB VPB VPWR X
.ends

* Black-box entry subcircuit for sky130_fd_sc_hd__a22oi_2 abstract view
.subckt sky130_fd_sc_hd__a22oi_2 A1 A2 B1 B2 VGND VNB VPB VPWR Y
.ends

* Black-box entry subcircuit for sky130_fd_sc_hd__or4_2 abstract view
.subckt sky130_fd_sc_hd__or4_2 A B C D VGND VNB VPB VPWR X
.ends

* Black-box entry subcircuit for sky130_fd_sc_hd__o2111a_1 abstract view
.subckt sky130_fd_sc_hd__o2111a_1 A1 A2 B1 C1 D1 VGND VNB VPB VPWR X
.ends

* Black-box entry subcircuit for sky130_fd_sc_hd__o22a_2 abstract view
.subckt sky130_fd_sc_hd__o22a_2 A1 A2 B1 B2 VGND VNB VPB VPWR X
.ends

* Black-box entry subcircuit for sky130_fd_sc_hd__nand2_4 abstract view
.subckt sky130_fd_sc_hd__nand2_4 A B VGND VNB VPB VPWR Y
.ends

* Black-box entry subcircuit for sky130_fd_sc_hd__a31oi_4 abstract view
.subckt sky130_fd_sc_hd__a31oi_4 A1 A2 A3 B1 VGND VNB VPB VPWR Y
.ends

* Black-box entry subcircuit for sky130_fd_sc_hd__and3b_1 abstract view
.subckt sky130_fd_sc_hd__and3b_1 A_N B C VGND VNB VPB VPWR X
.ends

* Black-box entry subcircuit for sky130_fd_sc_hd__or2b_1 abstract view
.subckt sky130_fd_sc_hd__or2b_1 A B_N VGND VNB VPB VPWR X
.ends

* Black-box entry subcircuit for sky130_fd_sc_hd__nand4_2 abstract view
.subckt sky130_fd_sc_hd__nand4_2 A B C D VGND VNB VPB VPWR Y
.ends

* Black-box entry subcircuit for sky130_fd_sc_hd__a21boi_1 abstract view
.subckt sky130_fd_sc_hd__a21boi_1 A1 A2 B1_N VGND VNB VPB VPWR Y
.ends

* Black-box entry subcircuit for sky130_fd_sc_hd__nand2_8 abstract view
.subckt sky130_fd_sc_hd__nand2_8 A B VGND VNB VPB VPWR Y
.ends

* Black-box entry subcircuit for sky130_fd_sc_hd__a22o_2 abstract view
.subckt sky130_fd_sc_hd__a22o_2 A1 A2 B1 B2 VGND VNB VPB VPWR X
.ends

* Black-box entry subcircuit for sky130_fd_sc_hd__o21a_4 abstract view
.subckt sky130_fd_sc_hd__o21a_4 A1 A2 B1 VGND VNB VPB VPWR X
.ends

* Black-box entry subcircuit for sky130_fd_sc_hd__nor3_2 abstract view
.subckt sky130_fd_sc_hd__nor3_2 A B C VGND VNB VPB VPWR Y
.ends

* Black-box entry subcircuit for sky130_fd_sc_hd__a211oi_4 abstract view
.subckt sky130_fd_sc_hd__a211oi_4 A1 A2 B1 C1 VGND VNB VPB VPWR Y
.ends

* Black-box entry subcircuit for sky130_fd_sc_hd__a31oi_2 abstract view
.subckt sky130_fd_sc_hd__a31oi_2 A1 A2 A3 B1 VGND VNB VPB VPWR Y
.ends

* Black-box entry subcircuit for sky130_fd_sc_hd__or2b_4 abstract view
.subckt sky130_fd_sc_hd__or2b_4 A B_N VGND VNB VPB VPWR X
.ends

* Black-box entry subcircuit for sky130_fd_sc_hd__o2bb2a_1 abstract view
.subckt sky130_fd_sc_hd__o2bb2a_1 A1_N A2_N B1 B2 VGND VNB VPB VPWR X
.ends

* Black-box entry subcircuit for sky130_fd_sc_hd__conb_1 abstract view
.subckt sky130_fd_sc_hd__conb_1 VGND VNB VPB VPWR HI LO
.ends

* Black-box entry subcircuit for sky130_fd_sc_hd__a211o_1 abstract view
.subckt sky130_fd_sc_hd__a211o_1 A1 A2 B1 C1 VGND VNB VPB VPWR X
.ends

* Black-box entry subcircuit for sky130_fd_sc_hd__a311o_1 abstract view
.subckt sky130_fd_sc_hd__a311o_1 A1 A2 A3 B1 C1 VGND VNB VPB VPWR X
.ends

* Black-box entry subcircuit for sky130_fd_sc_hd__nand3b_1 abstract view
.subckt sky130_fd_sc_hd__nand3b_1 A_N B C VGND VNB VPB VPWR Y
.ends

* Black-box entry subcircuit for sky130_fd_sc_hd__a32o_1 abstract view
.subckt sky130_fd_sc_hd__a32o_1 A1 A2 A3 B1 B2 VGND VNB VPB VPWR X
.ends

* Black-box entry subcircuit for sky130_fd_sc_hd__o211a_4 abstract view
.subckt sky130_fd_sc_hd__o211a_4 A1 A2 B1 C1 VGND VNB VPB VPWR X
.ends

* Black-box entry subcircuit for sky130_fd_sc_hd__and4b_1 abstract view
.subckt sky130_fd_sc_hd__and4b_1 A_N B C D VGND VNB VPB VPWR X
.ends

* Black-box entry subcircuit for sky130_fd_sc_hd__a21bo_1 abstract view
.subckt sky130_fd_sc_hd__a21bo_1 A1 A2 B1_N VGND VNB VPB VPWR X
.ends

* Black-box entry subcircuit for sky130_fd_sc_hd__o311ai_4 abstract view
.subckt sky130_fd_sc_hd__o311ai_4 A1 A2 A3 B1 C1 VGND VNB VPB VPWR Y
.ends

* Black-box entry subcircuit for sky130_fd_sc_hd__a32o_2 abstract view
.subckt sky130_fd_sc_hd__a32o_2 A1 A2 A3 B1 B2 VGND VNB VPB VPWR X
.ends

* Black-box entry subcircuit for sky130_fd_sc_hd__o32a_1 abstract view
.subckt sky130_fd_sc_hd__o32a_1 A1 A2 A3 B1 B2 VGND VNB VPB VPWR X
.ends

* Black-box entry subcircuit for sky130_fd_sc_hd__o22ai_2 abstract view
.subckt sky130_fd_sc_hd__o22ai_2 A1 A2 B1 B2 VGND VNB VPB VPWR Y
.ends

* Black-box entry subcircuit for sky130_fd_sc_hd__and4_2 abstract view
.subckt sky130_fd_sc_hd__and4_2 A B C D VGND VNB VPB VPWR X
.ends

* Black-box entry subcircuit for sky130_fd_sc_hd__a32oi_1 abstract view
.subckt sky130_fd_sc_hd__a32oi_1 A1 A2 A3 B1 B2 VGND VNB VPB VPWR Y
.ends

* Black-box entry subcircuit for sky130_fd_sc_hd__o211ai_1 abstract view
.subckt sky130_fd_sc_hd__o211ai_1 A1 A2 B1 C1 VGND VNB VPB VPWR Y
.ends

* Black-box entry subcircuit for sky130_fd_sc_hd__o2111a_2 abstract view
.subckt sky130_fd_sc_hd__o2111a_2 A1 A2 B1 C1 D1 VGND VNB VPB VPWR X
.ends

* Black-box entry subcircuit for sky130_fd_sc_hd__nor2_4 abstract view
.subckt sky130_fd_sc_hd__nor2_4 A B VGND VNB VPB VPWR Y
.ends

* Black-box entry subcircuit for sky130_fd_sc_hd__a2bb2oi_2 abstract view
.subckt sky130_fd_sc_hd__a2bb2oi_2 A1_N A2_N B1 B2 VGND VNB VPB VPWR Y
.ends

* Black-box entry subcircuit for sky130_fd_sc_hd__o31ai_4 abstract view
.subckt sky130_fd_sc_hd__o31ai_4 A1 A2 A3 B1 VGND VNB VPB VPWR Y
.ends

* Black-box entry subcircuit for sky130_fd_sc_hd__a32oi_4 abstract view
.subckt sky130_fd_sc_hd__a32oi_4 A1 A2 A3 B1 B2 VGND VNB VPB VPWR Y
.ends

* Black-box entry subcircuit for sky130_fd_sc_hd__o221a_2 abstract view
.subckt sky130_fd_sc_hd__o221a_2 A1 A2 B1 B2 C1 VGND VNB VPB VPWR X
.ends

* Black-box entry subcircuit for sky130_fd_sc_hd__a2bb2o_1 abstract view
.subckt sky130_fd_sc_hd__a2bb2o_1 A1_N A2_N B1 B2 VGND VNB VPB VPWR X
.ends

* Black-box entry subcircuit for sky130_fd_sc_hd__nor2_2 abstract view
.subckt sky130_fd_sc_hd__nor2_2 A B VGND VNB VPB VPWR Y
.ends

* Black-box entry subcircuit for sky130_fd_sc_hd__o2111ai_2 abstract view
.subckt sky130_fd_sc_hd__o2111ai_2 A1 A2 B1 C1 D1 VGND VNB VPB VPWR Y
.ends

* Black-box entry subcircuit for sky130_fd_sc_hd__nor3b_1 abstract view
.subckt sky130_fd_sc_hd__nor3b_1 A B C_N VGND VNB VPB VPWR Y
.ends

* Black-box entry subcircuit for sky130_fd_sc_hd__o22a_4 abstract view
.subckt sky130_fd_sc_hd__o22a_4 A1 A2 B1 B2 VGND VNB VPB VPWR X
.ends

* Black-box entry subcircuit for sky130_fd_sc_hd__o21bai_1 abstract view
.subckt sky130_fd_sc_hd__o21bai_1 A1 A2 B1_N VGND VNB VPB VPWR Y
.ends

* Black-box entry subcircuit for sky130_fd_sc_hd__xnor2_2 abstract view
.subckt sky130_fd_sc_hd__xnor2_2 A B VGND VNB VPB VPWR Y
.ends

* Black-box entry subcircuit for sky130_fd_sc_hd__a2111o_1 abstract view
.subckt sky130_fd_sc_hd__a2111o_1 A1 A2 B1 C1 D1 VGND VNB VPB VPWR X
.ends

* Black-box entry subcircuit for sky130_fd_sc_hd__o41a_1 abstract view
.subckt sky130_fd_sc_hd__o41a_1 A1 A2 A3 A4 B1 VGND VNB VPB VPWR X
.ends

* Black-box entry subcircuit for sky130_fd_sc_hd__or3_2 abstract view
.subckt sky130_fd_sc_hd__or3_2 A B C VGND VNB VPB VPWR X
.ends

.subckt DSP Tile_X0Y0_E1BEG[0] Tile_X0Y0_E1BEG[1] Tile_X0Y0_E1BEG[2] Tile_X0Y0_E1BEG[3]
+ Tile_X0Y0_E1END[0] Tile_X0Y0_E1END[1] Tile_X0Y0_E1END[2] Tile_X0Y0_E1END[3] Tile_X0Y0_E2BEG[0]
+ Tile_X0Y0_E2BEG[1] Tile_X0Y0_E2BEG[2] Tile_X0Y0_E2BEG[3] Tile_X0Y0_E2BEG[4] Tile_X0Y0_E2BEG[5]
+ Tile_X0Y0_E2BEG[6] Tile_X0Y0_E2BEG[7] Tile_X0Y0_E2BEGb[0] Tile_X0Y0_E2BEGb[1] Tile_X0Y0_E2BEGb[2]
+ Tile_X0Y0_E2BEGb[3] Tile_X0Y0_E2BEGb[4] Tile_X0Y0_E2BEGb[5] Tile_X0Y0_E2BEGb[6]
+ Tile_X0Y0_E2BEGb[7] Tile_X0Y0_E2END[0] Tile_X0Y0_E2END[1] Tile_X0Y0_E2END[2] Tile_X0Y0_E2END[3]
+ Tile_X0Y0_E2END[4] Tile_X0Y0_E2END[5] Tile_X0Y0_E2END[6] Tile_X0Y0_E2END[7] Tile_X0Y0_E2MID[0]
+ Tile_X0Y0_E2MID[1] Tile_X0Y0_E2MID[2] Tile_X0Y0_E2MID[3] Tile_X0Y0_E2MID[4] Tile_X0Y0_E2MID[5]
+ Tile_X0Y0_E2MID[6] Tile_X0Y0_E2MID[7] Tile_X0Y0_E6BEG[0] Tile_X0Y0_E6BEG[10] Tile_X0Y0_E6BEG[11]
+ Tile_X0Y0_E6BEG[1] Tile_X0Y0_E6BEG[2] Tile_X0Y0_E6BEG[3] Tile_X0Y0_E6BEG[4] Tile_X0Y0_E6BEG[5]
+ Tile_X0Y0_E6BEG[6] Tile_X0Y0_E6BEG[7] Tile_X0Y0_E6BEG[8] Tile_X0Y0_E6BEG[9] Tile_X0Y0_E6END[0]
+ Tile_X0Y0_E6END[10] Tile_X0Y0_E6END[11] Tile_X0Y0_E6END[1] Tile_X0Y0_E6END[2] Tile_X0Y0_E6END[3]
+ Tile_X0Y0_E6END[4] Tile_X0Y0_E6END[5] Tile_X0Y0_E6END[6] Tile_X0Y0_E6END[7] Tile_X0Y0_E6END[8]
+ Tile_X0Y0_E6END[9] Tile_X0Y0_EE4BEG[0] Tile_X0Y0_EE4BEG[10] Tile_X0Y0_EE4BEG[11]
+ Tile_X0Y0_EE4BEG[12] Tile_X0Y0_EE4BEG[13] Tile_X0Y0_EE4BEG[14] Tile_X0Y0_EE4BEG[15]
+ Tile_X0Y0_EE4BEG[1] Tile_X0Y0_EE4BEG[2] Tile_X0Y0_EE4BEG[3] Tile_X0Y0_EE4BEG[4]
+ Tile_X0Y0_EE4BEG[5] Tile_X0Y0_EE4BEG[6] Tile_X0Y0_EE4BEG[7] Tile_X0Y0_EE4BEG[8]
+ Tile_X0Y0_EE4BEG[9] Tile_X0Y0_EE4END[0] Tile_X0Y0_EE4END[10] Tile_X0Y0_EE4END[11]
+ Tile_X0Y0_EE4END[12] Tile_X0Y0_EE4END[13] Tile_X0Y0_EE4END[14] Tile_X0Y0_EE4END[15]
+ Tile_X0Y0_EE4END[1] Tile_X0Y0_EE4END[2] Tile_X0Y0_EE4END[3] Tile_X0Y0_EE4END[4]
+ Tile_X0Y0_EE4END[5] Tile_X0Y0_EE4END[6] Tile_X0Y0_EE4END[7] Tile_X0Y0_EE4END[8]
+ Tile_X0Y0_EE4END[9] Tile_X0Y0_FrameData[0] Tile_X0Y0_FrameData[10] Tile_X0Y0_FrameData[11]
+ Tile_X0Y0_FrameData[12] Tile_X0Y0_FrameData[13] Tile_X0Y0_FrameData[14] Tile_X0Y0_FrameData[15]
+ Tile_X0Y0_FrameData[16] Tile_X0Y0_FrameData[17] Tile_X0Y0_FrameData[18] Tile_X0Y0_FrameData[19]
+ Tile_X0Y0_FrameData[1] Tile_X0Y0_FrameData[20] Tile_X0Y0_FrameData[21] Tile_X0Y0_FrameData[22]
+ Tile_X0Y0_FrameData[23] Tile_X0Y0_FrameData[24] Tile_X0Y0_FrameData[25] Tile_X0Y0_FrameData[26]
+ Tile_X0Y0_FrameData[27] Tile_X0Y0_FrameData[28] Tile_X0Y0_FrameData[29] Tile_X0Y0_FrameData[2]
+ Tile_X0Y0_FrameData[30] Tile_X0Y0_FrameData[31] Tile_X0Y0_FrameData[3] Tile_X0Y0_FrameData[4]
+ Tile_X0Y0_FrameData[5] Tile_X0Y0_FrameData[6] Tile_X0Y0_FrameData[7] Tile_X0Y0_FrameData[8]
+ Tile_X0Y0_FrameData[9] Tile_X0Y0_FrameData_O[0] Tile_X0Y0_FrameData_O[10] Tile_X0Y0_FrameData_O[11]
+ Tile_X0Y0_FrameData_O[12] Tile_X0Y0_FrameData_O[13] Tile_X0Y0_FrameData_O[14] Tile_X0Y0_FrameData_O[15]
+ Tile_X0Y0_FrameData_O[16] Tile_X0Y0_FrameData_O[17] Tile_X0Y0_FrameData_O[18] Tile_X0Y0_FrameData_O[19]
+ Tile_X0Y0_FrameData_O[1] Tile_X0Y0_FrameData_O[20] Tile_X0Y0_FrameData_O[21] Tile_X0Y0_FrameData_O[22]
+ Tile_X0Y0_FrameData_O[23] Tile_X0Y0_FrameData_O[24] Tile_X0Y0_FrameData_O[25] Tile_X0Y0_FrameData_O[26]
+ Tile_X0Y0_FrameData_O[27] Tile_X0Y0_FrameData_O[28] Tile_X0Y0_FrameData_O[29] Tile_X0Y0_FrameData_O[2]
+ Tile_X0Y0_FrameData_O[30] Tile_X0Y0_FrameData_O[31] Tile_X0Y0_FrameData_O[3] Tile_X0Y0_FrameData_O[4]
+ Tile_X0Y0_FrameData_O[5] Tile_X0Y0_FrameData_O[6] Tile_X0Y0_FrameData_O[7] Tile_X0Y0_FrameData_O[8]
+ Tile_X0Y0_FrameData_O[9] Tile_X0Y0_FrameStrobe_O[0] Tile_X0Y0_FrameStrobe_O[10]
+ Tile_X0Y0_FrameStrobe_O[11] Tile_X0Y0_FrameStrobe_O[12] Tile_X0Y0_FrameStrobe_O[13]
+ Tile_X0Y0_FrameStrobe_O[14] Tile_X0Y0_FrameStrobe_O[15] Tile_X0Y0_FrameStrobe_O[16]
+ Tile_X0Y0_FrameStrobe_O[17] Tile_X0Y0_FrameStrobe_O[18] Tile_X0Y0_FrameStrobe_O[19]
+ Tile_X0Y0_FrameStrobe_O[1] Tile_X0Y0_FrameStrobe_O[2] Tile_X0Y0_FrameStrobe_O[3]
+ Tile_X0Y0_FrameStrobe_O[4] Tile_X0Y0_FrameStrobe_O[5] Tile_X0Y0_FrameStrobe_O[6]
+ Tile_X0Y0_FrameStrobe_O[7] Tile_X0Y0_FrameStrobe_O[8] Tile_X0Y0_FrameStrobe_O[9]
+ Tile_X0Y0_N1BEG[0] Tile_X0Y0_N1BEG[1] Tile_X0Y0_N1BEG[2] Tile_X0Y0_N1BEG[3] Tile_X0Y0_N2BEG[0]
+ Tile_X0Y0_N2BEG[1] Tile_X0Y0_N2BEG[2] Tile_X0Y0_N2BEG[3] Tile_X0Y0_N2BEG[4] Tile_X0Y0_N2BEG[5]
+ Tile_X0Y0_N2BEG[6] Tile_X0Y0_N2BEG[7] Tile_X0Y0_N2BEGb[0] Tile_X0Y0_N2BEGb[1] Tile_X0Y0_N2BEGb[2]
+ Tile_X0Y0_N2BEGb[3] Tile_X0Y0_N2BEGb[4] Tile_X0Y0_N2BEGb[5] Tile_X0Y0_N2BEGb[6]
+ Tile_X0Y0_N2BEGb[7] Tile_X0Y0_N4BEG[0] Tile_X0Y0_N4BEG[10] Tile_X0Y0_N4BEG[11] Tile_X0Y0_N4BEG[12]
+ Tile_X0Y0_N4BEG[13] Tile_X0Y0_N4BEG[14] Tile_X0Y0_N4BEG[15] Tile_X0Y0_N4BEG[1] Tile_X0Y0_N4BEG[2]
+ Tile_X0Y0_N4BEG[3] Tile_X0Y0_N4BEG[4] Tile_X0Y0_N4BEG[5] Tile_X0Y0_N4BEG[6] Tile_X0Y0_N4BEG[7]
+ Tile_X0Y0_N4BEG[8] Tile_X0Y0_N4BEG[9] Tile_X0Y0_NN4BEG[0] Tile_X0Y0_NN4BEG[10] Tile_X0Y0_NN4BEG[11]
+ Tile_X0Y0_NN4BEG[12] Tile_X0Y0_NN4BEG[13] Tile_X0Y0_NN4BEG[14] Tile_X0Y0_NN4BEG[15]
+ Tile_X0Y0_NN4BEG[1] Tile_X0Y0_NN4BEG[2] Tile_X0Y0_NN4BEG[3] Tile_X0Y0_NN4BEG[4]
+ Tile_X0Y0_NN4BEG[5] Tile_X0Y0_NN4BEG[6] Tile_X0Y0_NN4BEG[7] Tile_X0Y0_NN4BEG[8]
+ Tile_X0Y0_NN4BEG[9] Tile_X0Y0_S1END[0] Tile_X0Y0_S1END[1] Tile_X0Y0_S1END[2] Tile_X0Y0_S1END[3]
+ Tile_X0Y0_S2END[0] Tile_X0Y0_S2END[1] Tile_X0Y0_S2END[2] Tile_X0Y0_S2END[3] Tile_X0Y0_S2END[4]
+ Tile_X0Y0_S2END[5] Tile_X0Y0_S2END[6] Tile_X0Y0_S2END[7] Tile_X0Y0_S2MID[0] Tile_X0Y0_S2MID[1]
+ Tile_X0Y0_S2MID[2] Tile_X0Y0_S2MID[3] Tile_X0Y0_S2MID[4] Tile_X0Y0_S2MID[5] Tile_X0Y0_S2MID[6]
+ Tile_X0Y0_S2MID[7] Tile_X0Y0_S4END[0] Tile_X0Y0_S4END[10] Tile_X0Y0_S4END[11] Tile_X0Y0_S4END[12]
+ Tile_X0Y0_S4END[13] Tile_X0Y0_S4END[14] Tile_X0Y0_S4END[15] Tile_X0Y0_S4END[1] Tile_X0Y0_S4END[2]
+ Tile_X0Y0_S4END[3] Tile_X0Y0_S4END[4] Tile_X0Y0_S4END[5] Tile_X0Y0_S4END[6] Tile_X0Y0_S4END[7]
+ Tile_X0Y0_S4END[8] Tile_X0Y0_S4END[9] Tile_X0Y0_SS4END[0] Tile_X0Y0_SS4END[10] Tile_X0Y0_SS4END[11]
+ Tile_X0Y0_SS4END[12] Tile_X0Y0_SS4END[13] Tile_X0Y0_SS4END[14] Tile_X0Y0_SS4END[15]
+ Tile_X0Y0_SS4END[1] Tile_X0Y0_SS4END[2] Tile_X0Y0_SS4END[3] Tile_X0Y0_SS4END[4]
+ Tile_X0Y0_SS4END[5] Tile_X0Y0_SS4END[6] Tile_X0Y0_SS4END[7] Tile_X0Y0_SS4END[8]
+ Tile_X0Y0_SS4END[9] Tile_X0Y0_UserCLKo Tile_X0Y0_W1BEG[0] Tile_X0Y0_W1BEG[1] Tile_X0Y0_W1BEG[2]
+ Tile_X0Y0_W1BEG[3] Tile_X0Y0_W1END[0] Tile_X0Y0_W1END[1] Tile_X0Y0_W1END[2] Tile_X0Y0_W1END[3]
+ Tile_X0Y0_W2BEG[0] Tile_X0Y0_W2BEG[1] Tile_X0Y0_W2BEG[2] Tile_X0Y0_W2BEG[3] Tile_X0Y0_W2BEG[4]
+ Tile_X0Y0_W2BEG[5] Tile_X0Y0_W2BEG[6] Tile_X0Y0_W2BEG[7] Tile_X0Y0_W2BEGb[0] Tile_X0Y0_W2BEGb[1]
+ Tile_X0Y0_W2BEGb[2] Tile_X0Y0_W2BEGb[3] Tile_X0Y0_W2BEGb[4] Tile_X0Y0_W2BEGb[5]
+ Tile_X0Y0_W2BEGb[6] Tile_X0Y0_W2BEGb[7] Tile_X0Y0_W2END[0] Tile_X0Y0_W2END[1] Tile_X0Y0_W2END[2]
+ Tile_X0Y0_W2END[3] Tile_X0Y0_W2END[4] Tile_X0Y0_W2END[5] Tile_X0Y0_W2END[6] Tile_X0Y0_W2END[7]
+ Tile_X0Y0_W2MID[0] Tile_X0Y0_W2MID[1] Tile_X0Y0_W2MID[2] Tile_X0Y0_W2MID[3] Tile_X0Y0_W2MID[4]
+ Tile_X0Y0_W2MID[5] Tile_X0Y0_W2MID[6] Tile_X0Y0_W2MID[7] Tile_X0Y0_W6BEG[0] Tile_X0Y0_W6BEG[10]
+ Tile_X0Y0_W6BEG[11] Tile_X0Y0_W6BEG[1] Tile_X0Y0_W6BEG[2] Tile_X0Y0_W6BEG[3] Tile_X0Y0_W6BEG[4]
+ Tile_X0Y0_W6BEG[5] Tile_X0Y0_W6BEG[6] Tile_X0Y0_W6BEG[7] Tile_X0Y0_W6BEG[8] Tile_X0Y0_W6BEG[9]
+ Tile_X0Y0_W6END[0] Tile_X0Y0_W6END[10] Tile_X0Y0_W6END[11] Tile_X0Y0_W6END[1] Tile_X0Y0_W6END[2]
+ Tile_X0Y0_W6END[3] Tile_X0Y0_W6END[4] Tile_X0Y0_W6END[5] Tile_X0Y0_W6END[6] Tile_X0Y0_W6END[7]
+ Tile_X0Y0_W6END[8] Tile_X0Y0_W6END[9] Tile_X0Y0_WW4BEG[0] Tile_X0Y0_WW4BEG[10] Tile_X0Y0_WW4BEG[11]
+ Tile_X0Y0_WW4BEG[12] Tile_X0Y0_WW4BEG[13] Tile_X0Y0_WW4BEG[14] Tile_X0Y0_WW4BEG[15]
+ Tile_X0Y0_WW4BEG[1] Tile_X0Y0_WW4BEG[2] Tile_X0Y0_WW4BEG[3] Tile_X0Y0_WW4BEG[4]
+ Tile_X0Y0_WW4BEG[5] Tile_X0Y0_WW4BEG[6] Tile_X0Y0_WW4BEG[7] Tile_X0Y0_WW4BEG[8]
+ Tile_X0Y0_WW4BEG[9] Tile_X0Y0_WW4END[0] Tile_X0Y0_WW4END[10] Tile_X0Y0_WW4END[11]
+ Tile_X0Y0_WW4END[12] Tile_X0Y0_WW4END[13] Tile_X0Y0_WW4END[14] Tile_X0Y0_WW4END[15]
+ Tile_X0Y0_WW4END[1] Tile_X0Y0_WW4END[2] Tile_X0Y0_WW4END[3] Tile_X0Y0_WW4END[4]
+ Tile_X0Y0_WW4END[5] Tile_X0Y0_WW4END[6] Tile_X0Y0_WW4END[7] Tile_X0Y0_WW4END[8]
+ Tile_X0Y0_WW4END[9] Tile_X0Y1_E1BEG[0] Tile_X0Y1_E1BEG[1] Tile_X0Y1_E1BEG[2] Tile_X0Y1_E1BEG[3]
+ Tile_X0Y1_E1END[0] Tile_X0Y1_E1END[1] Tile_X0Y1_E1END[2] Tile_X0Y1_E1END[3] Tile_X0Y1_E2BEG[0]
+ Tile_X0Y1_E2BEG[1] Tile_X0Y1_E2BEG[2] Tile_X0Y1_E2BEG[3] Tile_X0Y1_E2BEG[4] Tile_X0Y1_E2BEG[5]
+ Tile_X0Y1_E2BEG[6] Tile_X0Y1_E2BEG[7] Tile_X0Y1_E2BEGb[0] Tile_X0Y1_E2BEGb[1] Tile_X0Y1_E2BEGb[2]
+ Tile_X0Y1_E2BEGb[3] Tile_X0Y1_E2BEGb[4] Tile_X0Y1_E2BEGb[5] Tile_X0Y1_E2BEGb[6]
+ Tile_X0Y1_E2BEGb[7] Tile_X0Y1_E2END[0] Tile_X0Y1_E2END[1] Tile_X0Y1_E2END[2] Tile_X0Y1_E2END[3]
+ Tile_X0Y1_E2END[4] Tile_X0Y1_E2END[5] Tile_X0Y1_E2END[6] Tile_X0Y1_E2END[7] Tile_X0Y1_E2MID[0]
+ Tile_X0Y1_E2MID[1] Tile_X0Y1_E2MID[2] Tile_X0Y1_E2MID[3] Tile_X0Y1_E2MID[4] Tile_X0Y1_E2MID[5]
+ Tile_X0Y1_E2MID[6] Tile_X0Y1_E2MID[7] Tile_X0Y1_E6BEG[0] Tile_X0Y1_E6BEG[10] Tile_X0Y1_E6BEG[11]
+ Tile_X0Y1_E6BEG[1] Tile_X0Y1_E6BEG[2] Tile_X0Y1_E6BEG[3] Tile_X0Y1_E6BEG[4] Tile_X0Y1_E6BEG[5]
+ Tile_X0Y1_E6BEG[6] Tile_X0Y1_E6BEG[7] Tile_X0Y1_E6BEG[8] Tile_X0Y1_E6BEG[9] Tile_X0Y1_E6END[0]
+ Tile_X0Y1_E6END[10] Tile_X0Y1_E6END[11] Tile_X0Y1_E6END[1] Tile_X0Y1_E6END[2] Tile_X0Y1_E6END[3]
+ Tile_X0Y1_E6END[4] Tile_X0Y1_E6END[5] Tile_X0Y1_E6END[6] Tile_X0Y1_E6END[7] Tile_X0Y1_E6END[8]