* NGSPICE file created from eFPGA_Config.ext - technology: sky130A

* Black-box entry subcircuit for sky130_fd_sc_hd__dfrtp_1 abstract view
.subckt sky130_fd_sc_hd__dfrtp_1 CLK D RESET_B VGND VNB VPB VPWR Q
.ends

* Black-box entry subcircuit for sky130_fd_sc_hd__tapvpwrvgnd_1 abstract view
.subckt sky130_fd_sc_hd__tapvpwrvgnd_1 VGND VPWR
.ends

* Black-box entry subcircuit for sky130_fd_sc_hd__clkbuf_1 abstract view
.subckt sky130_fd_sc_hd__clkbuf_1 A VGND VNB VPB VPWR X
.ends

* Black-box entry subcircuit for sky130_fd_sc_hd__diode_2 abstract view
.subckt sky130_fd_sc_hd__diode_2 DIODE VGND VNB VPB VPWR
.ends

* Black-box entry subcircuit for sky130_fd_sc_hd__mux2_1 abstract view
.subckt sky130_fd_sc_hd__mux2_1 A0 A1 S VGND VNB VPB VPWR X
.ends

* Black-box entry subcircuit for sky130_fd_sc_hd__fill_2 abstract view
.subckt sky130_fd_sc_hd__fill_2 VGND VNB VPB VPWR
.ends

* Black-box entry subcircuit for sky130_fd_sc_hd__fill_1 abstract view
.subckt sky130_fd_sc_hd__fill_1 VGND VNB VPB VPWR
.ends

* Black-box entry subcircuit for sky130_fd_sc_hd__or2_1 abstract view
.subckt sky130_fd_sc_hd__or2_1 A B VGND VNB VPB VPWR X
.ends

* Black-box entry subcircuit for sky130_fd_sc_hd__xnor2_1 abstract view
.subckt sky130_fd_sc_hd__xnor2_1 A B VGND VNB VPB VPWR Y
.ends

* Black-box entry subcircuit for sky130_fd_sc_hd__decap_3 abstract view
.subckt sky130_fd_sc_hd__decap_3 VGND VNB VPB VPWR
.ends

* Black-box entry subcircuit for sky130_fd_sc_hd__a21oi_1 abstract view
.subckt sky130_fd_sc_hd__a21oi_1 A1 A2 B1 VGND VNB VPB VPWR Y
.ends

* Black-box entry subcircuit for sky130_fd_sc_hd__decap_4 abstract view
.subckt sky130_fd_sc_hd__decap_4 VGND VNB VPB VPWR
.ends

* Black-box entry subcircuit for sky130_fd_sc_hd__nand2b_4 abstract view
.subckt sky130_fd_sc_hd__nand2b_4 A_N B VGND VNB VPB VPWR Y
.ends

* Black-box entry subcircuit for sky130_ef_sc_hd__decap_12 abstract view
.subckt sky130_ef_sc_hd__decap_12 VGND VNB VPB VPWR
.ends

* Black-box entry subcircuit for sky130_fd_sc_hd__decap_6 abstract view
.subckt sky130_fd_sc_hd__decap_6 VGND VNB VPB VPWR
.ends

* Black-box entry subcircuit for sky130_fd_sc_hd__and4_1 abstract view
.subckt sky130_fd_sc_hd__and4_1 A B C D VGND VNB VPB VPWR X
.ends

* Black-box entry subcircuit for sky130_fd_sc_hd__nand2_1 abstract view
.subckt sky130_fd_sc_hd__nand2_1 A B VGND VNB VPB VPWR Y
.ends

* Black-box entry subcircuit for sky130_fd_sc_hd__a31o_1 abstract view
.subckt sky130_fd_sc_hd__a31o_1 A1 A2 A3 B1 VGND VNB VPB VPWR X
.ends

* Black-box entry subcircuit for sky130_fd_sc_hd__buf_4 abstract view
.subckt sky130_fd_sc_hd__buf_4 A VGND VNB VPB VPWR X
.ends

* Black-box entry subcircuit for sky130_fd_sc_hd__o211ai_2 abstract view
.subckt sky130_fd_sc_hd__o211ai_2 A1 A2 B1 C1 VGND VNB VPB VPWR Y
.ends

* Black-box entry subcircuit for sky130_fd_sc_hd__buf_2 abstract view
.subckt sky130_fd_sc_hd__buf_2 A VGND VNB VPB VPWR X
.ends

* Black-box entry subcircuit for sky130_fd_sc_hd__or4b_1 abstract view
.subckt sky130_fd_sc_hd__or4b_1 A B C D_N VGND VNB VPB VPWR X
.ends

* Black-box entry subcircuit for sky130_fd_sc_hd__and3_1 abstract view
.subckt sky130_fd_sc_hd__and3_1 A B C VGND VNB VPB VPWR X
.ends

* Black-box entry subcircuit for sky130_fd_sc_hd__clkbuf_4 abstract view
.subckt sky130_fd_sc_hd__clkbuf_4 A VGND VNB VPB VPWR X
.ends

* Black-box entry subcircuit for sky130_fd_sc_hd__inv_2 abstract view
.subckt sky130_fd_sc_hd__inv_2 A VGND VNB VPB VPWR Y
.ends

* Black-box entry subcircuit for sky130_fd_sc_hd__clkbuf_2 abstract view
.subckt sky130_fd_sc_hd__clkbuf_2 A VGND VNB VPB VPWR X
.ends

* Black-box entry subcircuit for sky130_fd_sc_hd__dfstp_1 abstract view
.subckt sky130_fd_sc_hd__dfstp_1 CLK D SET_B VGND VNB VPB VPWR Q
.ends

* Black-box entry subcircuit for sky130_fd_sc_hd__decap_8 abstract view
.subckt sky130_fd_sc_hd__decap_8 VGND VNB VPB VPWR
.ends

* Black-box entry subcircuit for sky130_fd_sc_hd__or4bb_4 abstract view
.subckt sky130_fd_sc_hd__or4bb_4 A B C_N D_N VGND VNB VPB VPWR X
.ends

* Black-box entry subcircuit for sky130_fd_sc_hd__or4bb_1 abstract view
.subckt sky130_fd_sc_hd__or4bb_1 A B C_N D_N VGND VNB VPB VPWR X
.ends

* Black-box entry subcircuit for sky130_fd_sc_hd__dfxtp_1 abstract view
.subckt sky130_fd_sc_hd__dfxtp_1 CLK D VGND VNB VPB VPWR Q
.ends

* Black-box entry subcircuit for sky130_fd_sc_hd__a22o_1 abstract view
.subckt sky130_fd_sc_hd__a22o_1 A1 A2 B1 B2 VGND VNB VPB VPWR X
.ends

* Black-box entry subcircuit for sky130_fd_sc_hd__dfrtp_4 abstract view
.subckt sky130_fd_sc_hd__dfrtp_4 CLK D RESET_B VGND VNB VPB VPWR Q
.ends

* Black-box entry subcircuit for sky130_fd_sc_hd__o21ai_1 abstract view
.subckt sky130_fd_sc_hd__o21ai_1 A1 A2 B1 VGND VNB VPB VPWR Y
.ends

* Black-box entry subcircuit for sky130_fd_sc_hd__a21o_1 abstract view
.subckt sky130_fd_sc_hd__a21o_1 A1 A2 B1 VGND VNB VPB VPWR X
.ends

* Black-box entry subcircuit for sky130_fd_sc_hd__a21bo_1 abstract view
.subckt sky130_fd_sc_hd__a21bo_1 A1 A2 B1_N VGND VNB VPB VPWR X
.ends

* Black-box entry subcircuit for sky130_fd_sc_hd__and2b_1 abstract view
.subckt sky130_fd_sc_hd__and2b_1 A_N B VGND VNB VPB VPWR X
.ends

* Black-box entry subcircuit for sky130_fd_sc_hd__or3_1 abstract view
.subckt sky130_fd_sc_hd__or3_1 A B C VGND VNB VPB VPWR X
.ends

* Black-box entry subcircuit for sky130_fd_sc_hd__and4bb_1 abstract view
.subckt sky130_fd_sc_hd__and4bb_1 A_N B_N C D VGND VNB VPB VPWR X
.ends

* Black-box entry subcircuit for sky130_fd_sc_hd__a32o_1 abstract view
.subckt sky130_fd_sc_hd__a32o_1 A1 A2 A3 B1 B2 VGND VNB VPB VPWR X
.ends

* Black-box entry subcircuit for sky130_fd_sc_hd__nor2_1 abstract view
.subckt sky130_fd_sc_hd__nor2_1 A B VGND VNB VPB VPWR Y
.ends

* Black-box entry subcircuit for sky130_fd_sc_hd__o211a_1 abstract view
.subckt sky130_fd_sc_hd__o211a_1 A1 A2 B1 C1 VGND VNB VPB VPWR X
.ends

* Black-box entry subcircuit for sky130_fd_sc_hd__a31oi_1 abstract view
.subckt sky130_fd_sc_hd__a31oi_1 A1 A2 A3 B1 VGND VNB VPB VPWR Y
.ends

* Black-box entry subcircuit for sky130_fd_sc_hd__or2b_1 abstract view
.subckt sky130_fd_sc_hd__or2b_1 A B_N VGND VNB VPB VPWR X
.ends

* Black-box entry subcircuit for sky130_fd_sc_hd__o31ai_1 abstract view
.subckt sky130_fd_sc_hd__o31ai_1 A1 A2 A3 B1 VGND VNB VPB VPWR Y
.ends

* Black-box entry subcircuit for sky130_fd_sc_hd__and2_1 abstract view
.subckt sky130_fd_sc_hd__and2_1 A B VGND VNB VPB VPWR X
.ends

* Black-box entry subcircuit for sky130_fd_sc_hd__or4_2 abstract view
.subckt sky130_fd_sc_hd__or4_2 A B C D VGND VNB VPB VPWR X
.ends

* Black-box entry subcircuit for sky130_fd_sc_hd__nand4_4 abstract view
.subckt sky130_fd_sc_hd__nand4_4 A B C D VGND VNB VPB VPWR Y
.ends

* Black-box entry subcircuit for sky130_fd_sc_hd__nor2_4 abstract view
.subckt sky130_fd_sc_hd__nor2_4 A B VGND VNB VPB VPWR Y
.ends

* Black-box entry subcircuit for sky130_fd_sc_hd__nor4b_2 abstract view
.subckt sky130_fd_sc_hd__nor4b_2 A B C D_N VGND VNB VPB VPWR Y
.ends

* Black-box entry subcircuit for sky130_fd_sc_hd__dfstp_2 abstract view
.subckt sky130_fd_sc_hd__dfstp_2 CLK D SET_B VGND VNB VPB VPWR Q
.ends

* Black-box entry subcircuit for sky130_fd_sc_hd__dfrtp_2 abstract view
.subckt sky130_fd_sc_hd__dfrtp_2 CLK D RESET_B VGND VNB VPB VPWR Q
.ends

* Black-box entry subcircuit for sky130_fd_sc_hd__o31a_1 abstract view
.subckt sky130_fd_sc_hd__o31a_1 A1 A2 A3 B1 VGND VNB VPB VPWR X
.ends

* Black-box entry subcircuit for sky130_fd_sc_hd__o21ai_2 abstract view
.subckt sky130_fd_sc_hd__o21ai_2 A1 A2 B1 VGND VNB VPB VPWR Y
.ends

* Black-box entry subcircuit for sky130_fd_sc_hd__and4b_1 abstract view
.subckt sky130_fd_sc_hd__and4b_1 A_N B C D VGND VNB VPB VPWR X
.ends

* Black-box entry subcircuit for sky130_fd_sc_hd__dlymetal6s2s_1 abstract view
.subckt sky130_fd_sc_hd__dlymetal6s2s_1 A VGND VNB VPB VPWR X
.ends

* Black-box entry subcircuit for sky130_fd_sc_hd__or3b_1 abstract view
.subckt sky130_fd_sc_hd__or3b_1 A B C_N VGND VNB VPB VPWR X
.ends

* Black-box entry subcircuit for sky130_fd_sc_hd__and3b_1 abstract view
.subckt sky130_fd_sc_hd__and3b_1 A_N B C VGND VNB VPB VPWR X
.ends

* Black-box entry subcircuit for sky130_fd_sc_hd__a21oi_4 abstract view
.subckt sky130_fd_sc_hd__a21oi_4 A1 A2 B1 VGND VNB VPB VPWR Y
.ends

* Black-box entry subcircuit for sky130_fd_sc_hd__o22a_1 abstract view
.subckt sky130_fd_sc_hd__o22a_1 A1 A2 B1 B2 VGND VNB VPB VPWR X
.ends

* Black-box entry subcircuit for sky130_fd_sc_hd__a2bb2o_1 abstract view
.subckt sky130_fd_sc_hd__a2bb2o_1 A1_N A2_N B1 B2 VGND VNB VPB VPWR X
.ends

* Black-box entry subcircuit for sky130_fd_sc_hd__a21oi_2 abstract view
.subckt sky130_fd_sc_hd__a21oi_2 A1 A2 B1 VGND VNB VPB VPWR Y
.ends

* Black-box entry subcircuit for sky130_fd_sc_hd__a31oi_2 abstract view
.subckt sky130_fd_sc_hd__a31oi_2 A1 A2 A3 B1 VGND VNB VPB VPWR Y
.ends

* Black-box entry subcircuit for sky130_fd_sc_hd__nand3_2 abstract view
.subckt sky130_fd_sc_hd__nand3_2 A B C VGND VNB VPB VPWR Y
.ends

* Black-box entry subcircuit for sky130_fd_sc_hd__buf_1 abstract view
.subckt sky130_fd_sc_hd__buf_1 A VGND VNB VPB VPWR X
.ends

* Black-box entry subcircuit for sky130_fd_sc_hd__a211oi_4 abstract view
.subckt sky130_fd_sc_hd__a211oi_4 A1 A2 B1 C1 VGND VNB VPB VPWR Y
.ends

* Black-box entry subcircuit for sky130_fd_sc_hd__xor2_1 abstract view
.subckt sky130_fd_sc_hd__xor2_1 A B VGND VNB VPB VPWR X
.ends

* Black-box entry subcircuit for sky130_fd_sc_hd__nand2_4 abstract view
.subckt sky130_fd_sc_hd__nand2_4 A B VGND VNB VPB VPWR Y
.ends

* Black-box entry subcircuit for sky130_fd_sc_hd__or2_2 abstract view
.subckt sky130_fd_sc_hd__or2_2 A B VGND VNB VPB VPWR X
.ends

* Black-box entry subcircuit for sky130_fd_sc_hd__clkbuf_16 abstract view
.subckt sky130_fd_sc_hd__clkbuf_16 A VGND VNB VPB VPWR X
.ends

* Black-box entry subcircuit for sky130_fd_sc_hd__or4_1 abstract view
.subckt sky130_fd_sc_hd__or4_1 A B C D VGND VNB VPB VPWR X
.ends

* Black-box entry subcircuit for sky130_fd_sc_hd__or4bb_2 abstract view
.subckt sky130_fd_sc_hd__or4bb_2 A B C_N D_N VGND VNB VPB VPWR X
.ends

* Black-box entry subcircuit for sky130_fd_sc_hd__nand2b_2 abstract view
.subckt sky130_fd_sc_hd__nand2b_2 A_N B VGND VNB VPB VPWR Y
.ends

* Black-box entry subcircuit for sky130_fd_sc_hd__dfstp_4 abstract view
.subckt sky130_fd_sc_hd__dfstp_4 CLK D SET_B VGND VNB VPB VPWR Q
.ends

* Black-box entry subcircuit for sky130_fd_sc_hd__or3_2 abstract view
.subckt sky130_fd_sc_hd__or3_2 A B C VGND VNB VPB VPWR X
.ends

* Black-box entry subcircuit for sky130_fd_sc_hd__a41o_1 abstract view
.subckt sky130_fd_sc_hd__a41o_1 A1 A2 A3 A4 B1 VGND VNB VPB VPWR X
.ends

* Black-box entry subcircuit for sky130_fd_sc_hd__nand3_1 abstract view
.subckt sky130_fd_sc_hd__nand3_1 A B C VGND VNB VPB VPWR Y
.ends

* Black-box entry subcircuit for sky130_fd_sc_hd__nand2b_1 abstract view
.subckt sky130_fd_sc_hd__nand2b_1 A_N B VGND VNB VPB VPWR Y
.ends

* Black-box entry subcircuit for sky130_fd_sc_hd__conb_1 abstract view
.subckt sky130_fd_sc_hd__conb_1 VGND VNB VPB VPWR HI LO
.ends

* Black-box entry subcircuit for sky130_fd_sc_hd__nand4_1 abstract view
.subckt sky130_fd_sc_hd__nand4_1 A B C D VGND VNB VPB VPWR Y
.ends

* Black-box entry subcircuit for sky130_fd_sc_hd__nor3_1 abstract view
.subckt sky130_fd_sc_hd__nor3_1 A B C VGND VNB VPB VPWR Y
.ends

* Black-box entry subcircuit for sky130_fd_sc_hd__o311ai_4 abstract view
.subckt sky130_fd_sc_hd__o311ai_4 A1 A2 A3 B1 C1 VGND VNB VPB VPWR Y
.ends

* Black-box entry subcircuit for sky130_fd_sc_hd__o21a_1 abstract view
.subckt sky130_fd_sc_hd__o21a_1 A1 A2 B1 VGND VNB VPB VPWR X
.ends

* Black-box entry subcircuit for sky130_fd_sc_hd__a211o_1 abstract view
.subckt sky130_fd_sc_hd__a211o_1 A1 A2 B1 C1 VGND VNB VPB VPWR X
.ends

* Black-box entry subcircuit for sky130_fd_sc_hd__a311o_1 abstract view
.subckt sky130_fd_sc_hd__a311o_1 A1 A2 A3 B1 C1 VGND VNB VPB VPWR X
.ends

* Black-box entry subcircuit for sky130_fd_sc_hd__nand2_2 abstract view
.subckt sky130_fd_sc_hd__nand2_2 A B VGND VNB VPB VPWR Y
.ends

* Black-box entry subcircuit for sky130_fd_sc_hd__or4b_2 abstract view
.subckt sky130_fd_sc_hd__or4b_2 A B C D_N VGND VNB VPB VPWR X
.ends

* Black-box entry subcircuit for sky130_fd_sc_hd__o211a_2 abstract view
.subckt sky130_fd_sc_hd__o211a_2 A1 A2 B1 C1 VGND VNB VPB VPWR X
.ends

* Black-box entry subcircuit for sky130_fd_sc_hd__or3b_2 abstract view
.subckt sky130_fd_sc_hd__or3b_2 A B C_N VGND VNB VPB VPWR X
.ends

* Black-box entry subcircuit for sky130_fd_sc_hd__a221o_1 abstract view
.subckt sky130_fd_sc_hd__a221o_1 A1 A2 B1 B2 C1 VGND VNB VPB VPWR X
.ends

* Black-box entry subcircuit for sky130_fd_sc_hd__a311o_2 abstract view
.subckt sky130_fd_sc_hd__a311o_2 A1 A2 A3 B1 C1 VGND VNB VPB VPWR X
.ends

.subckt eFPGA_Config CLK ComActive ConfigWriteData[0] ConfigWriteData[10] ConfigWriteData[11]
+ ConfigWriteData[12] ConfigWriteData[13] ConfigWriteData[14] ConfigWriteData[15]
+ ConfigWriteData[16] ConfigWriteData[17] ConfigWriteData[18] ConfigWriteData[19]
+ ConfigWriteData[1] ConfigWriteData[20] ConfigWriteData[21] ConfigWriteData[22] ConfigWriteData[23]
+ ConfigWriteData[24] ConfigWriteData[25] ConfigWriteData[26] ConfigWriteData[27]
+ ConfigWriteData[28] ConfigWriteData[29] ConfigWriteData[2] ConfigWriteData[30] ConfigWriteData[31]
+ ConfigWriteData[3] ConfigWriteData[4] ConfigWriteData[5] ConfigWriteData[6] ConfigWriteData[7]
+ ConfigWriteData[8] ConfigWriteData[9] ConfigWriteStrobe FrameAddressRegister[0]
+ FrameAddressRegister[10] FrameAddressRegister[11] FrameAddressRegister[12] FrameAddressRegister[13]
+ FrameAddressRegister[14] FrameAddressRegister[15] FrameAddressRegister[16] FrameAddressRegister[17]
+ FrameAddressRegister[18] FrameAddressRegister[19] FrameAddressRegister[1] FrameAddressRegister[20]
+ FrameAddressRegister[21] FrameAddressRegister[22] FrameAddressRegister[23] FrameAddressRegister[24]
+ FrameAddressRegister[25] FrameAddressRegister[26] FrameAddressRegister[27] FrameAddressRegister[28]
+ FrameAddressRegister[29] FrameAddressRegister[2] FrameAddressRegister[30] FrameAddressRegister[31]
+ FrameAddressRegister[3] FrameAddressRegister[4] FrameAddressRegister[5] FrameAddressRegister[6]
+ FrameAddressRegister[7] FrameAddressRegister[8] FrameAddressRegister[9] LongFrameStrobe
+ ReceiveLED RowSelect[0] RowSelect[1] RowSelect[2] RowSelect[3] RowSelect[4] Rx SelfWriteData[0]
+ SelfWriteData[10] SelfWriteData[11] SelfWriteData[12] SelfWriteData[13] SelfWriteData[14]
+ SelfWriteData[15] SelfWriteData[16] SelfWriteData[17] SelfWriteData[18] SelfWriteData[19]
+ SelfWriteData[1] SelfWriteData[20] SelfWriteData[21] SelfWriteData[22] SelfWriteData[23]
+ SelfWriteData[24] SelfWriteData[25] SelfWriteData[26] SelfWriteData[27] SelfWriteData[28]
+ SelfWriteData[29] SelfWriteData[2] SelfWriteData[30] SelfWriteData[31] SelfWriteData[3]
+ SelfWriteData[4] SelfWriteData[5] SelfWriteData[6] SelfWriteData[7] SelfWriteData[8]
+ SelfWriteData[9] SelfWriteStrobe resetn s_clk s_data vccd1 vssd1
XINST_config_UART._1187_ net1 INST_config_UART._0056_ net36 vssd1 vssd1 vccd1 vccd1
+ INST_config_UART.WriteData\[0\] sky130_fd_sc_hd__dfrtp_1
XTAP_199 vssd1 vccd1 sky130_fd_sc_hd__tapvpwrvgnd_1
XTAP_177 vssd1 vccd1 sky130_fd_sc_hd__tapvpwrvgnd_1
XTAP_188 vssd1 vccd1 sky130_fd_sc_hd__tapvpwrvgnd_1
XInst_bitbang._345_ Inst_bitbang._172_ vssd1 vssd1 vccd1 vccd1 Inst_bitbang._074_
+ sky130_fd_sc_hd__clkbuf_1
XANTENNA_INST_config_UART._1335__RESET_B net112 vssd1 vssd1 vccd1 vccd1 sky130_fd_sc_hd__diode_2
XInst_bitbang._414_ net1 Inst_bitbang._051_ net36 vssd1 vssd1 vccd1 vccd1 Inst_bitbang.serial_data\[16\]
+ sky130_fd_sc_hd__dfrtp_1
XInst_bitbang._276_ Inst_bitbang.serial_data\[6\] Inst_bitbang.serial_data\[7\] Inst_bitbang._128_
+ vssd1 vssd1 vccd1 vccd1 Inst_bitbang._136_ sky130_fd_sc_hd__mux2_1
XFILLER_0_7_92 vssd1 vssd1 vccd1 vccd1 sky130_fd_sc_hd__fill_2
XFILLER_0_23_225 vssd1 vssd1 vccd1 vccd1 sky130_fd_sc_hd__fill_1
XINST_config_UART._1041_ INST_config_UART.CRCReg\[6\] INST_config_UART._0499_ vssd1
+ vssd1 vccd1 vccd1 INST_config_UART._0500_ sky130_fd_sc_hd__or2_1
XINST_config_UART._1110_ INST_config_UART.ID_Reg\[0\] INST_config_UART._0223_ INST_config_UART._0553_
+ vssd1 vssd1 vccd1 vccd1 INST_config_UART._0554_ sky130_fd_sc_hd__mux2_1
XFILLER_0_39_380 vssd1 vssd1 vccd1 vccd1 sky130_fd_sc_hd__fill_2
XINST_config_UART._0756_ INST_config_UART.blink\[22\] INST_config_UART._0304_ vssd1
+ vssd1 vccd1 vccd1 INST_config_UART._0045_ sky130_fd_sc_hd__xnor2_1
XFILLER_0_13_84 vssd1 vssd1 vccd1 vccd1 sky130_fd_sc_hd__fill_2
XFILLER_0_13_51 vssd1 vssd1 vccd1 vccd1 sky130_fd_sc_hd__decap_3
XFILLER_0_6_403 vssd1 vssd1 vccd1 vccd1 sky130_fd_sc_hd__fill_2
XINST_config_UART._0825_ INST_config_UART._0250_ INST_config_UART._0347_ INST_config_UART.ComState\[10\]
+ vssd1 vssd1 vccd1 vccd1 INST_config_UART._0348_ sky130_fd_sc_hd__mux2_1
XINST_config_UART._0687_ INST_config_UART._0266_ INST_config_UART._0267_ INST_config_UART._0251_
+ vssd1 vssd1 vccd1 vccd1 INST_config_UART._0007_ sky130_fd_sc_hd__a21oi_1
XFILLER_0_6_447 vssd1 vssd1 vccd1 vccd1 sky130_fd_sc_hd__fill_2
XFILLER_0_38_81 vssd1 vssd1 vccd1 vccd1 sky130_fd_sc_hd__fill_1
XINST_config_UART._1308_ net1 INST_config_UART._0143_ net36 vssd1 vssd1 vccd1 vccd1
+ INST_config_UART.CRCReg\[5\] sky130_fd_sc_hd__dfrtp_1
XINST_config_UART._1239_ net1 INST_config_UART._0101_ net112 vssd1 vssd1 vccd1 vccd1
+ INST_config_UART.HighReg\[0\] sky130_fd_sc_hd__dfrtp_1
XFILLER_0_1_174 vssd1 vssd1 vccd1 vccd1 sky130_fd_sc_hd__decap_4
XANTENNA_INST_config_UART._1251__CLK net1 vssd1 vssd1 vccd1 vccd1 sky130_fd_sc_hd__diode_2
XInst_bitbang._328_ Inst_bitbang.s_clk_sample\[2\] Inst_bitbang.s_clk_sample\[3\]
+ vssd1 vssd1 vccd1 vccd1 Inst_bitbang._163_ sky130_fd_sc_hd__nand2b_4
XFILLER_0_18_29 vssd1 vssd1 vccd1 vccd1 sky130_ef_sc_hd__decap_12
XInst_bitbang._259_ Inst_bitbang._126_ vssd1 vssd1 vccd1 vccd1 Inst_bitbang._034_
+ sky130_fd_sc_hd__clkbuf_1
XFILLER_0_34_39 vssd1 vssd1 vccd1 vccd1 sky130_fd_sc_hd__decap_6
XINST_config_UART._0610_ INST_config_UART._0203_ INST_config_UART._0204_ INST_config_UART._0206_
+ INST_config_UART._0209_ vssd1 vssd1 vccd1 vccd1 INST_config_UART._0210_ sky130_fd_sc_hd__and4_1
XANTENNA_INST_config_UART._1257__RESET_B net111 vssd1 vssd1 vccd1 vccd1 sky130_fd_sc_hd__diode_2
XFILLER_0_38_9 vssd1 vssd1 vccd1 vccd1 sky130_fd_sc_hd__fill_1
XINST_config_UART._1024_ INST_config_UART._0483_ INST_config_UART._0485_ vssd1 vssd1
+ vccd1 vccd1 INST_config_UART._0486_ sky130_fd_sc_hd__xnor2_1
XINST_config_UART._0739_ INST_config_UART.blink\[14\] INST_config_UART._0294_ vssd1
+ vssd1 vccd1 vccd1 INST_config_UART._0297_ sky130_fd_sc_hd__nand2_1
XINST_config_UART._0808_ INST_config_UART._0243_ INST_config_UART.WriteData\[8\] INST_config_UART._0215_
+ INST_config_UART._0338_ vssd1 vssd1 vccd1 vccd1 INST_config_UART._0072_ sky130_fd_sc_hd__a31o_1
XANTENNA_INST_config_UART._1274__CLK net1 vssd1 vssd1 vccd1 vccd1 sky130_fd_sc_hd__diode_2
XFILLER_0_2_472 vssd1 vssd1 vccd1 vccd1 sky130_fd_sc_hd__fill_2
XFILLER_0_10_261 vssd1 vssd1 vccd1 vccd1 sky130_fd_sc_hd__fill_2
XFILLER_0_4_60 vssd1 vssd1 vccd1 vccd1 sky130_fd_sc_hd__fill_2
XANTENNA__209__A ConfigFSM_inst.WriteData\[28\] vssd1 vssd1 vccd1 vccd1 sky130_fd_sc_hd__diode_2
X_200_ ConfigFSM_inst.WriteData\[19\] vssd1 vssd1 vccd1 vccd1 net50 sky130_fd_sc_hd__clkbuf_1
XFILLER_0_37_125 vssd1 vssd1 vccd1 vccd1 sky130_fd_sc_hd__fill_2
XANTENNA_INST_config_UART._1350__RESET_B net112 vssd1 vssd1 vccd1 vccd1 sky130_fd_sc_hd__diode_2
X_131_ _039_ INST_config_UART.WriteData\[17\] _023_ vssd1 vssd1 vccd1 vccd1 _040_
+ sky130_fd_sc_hd__mux2_1
XANTENNA_INST_config_UART._1297__CLK net1 vssd1 vssd1 vccd1 vccd1 sky130_fd_sc_hd__diode_2
XANTENNA_INST_config_UART._0655__B1 net39 vssd1 vssd1 vccd1 vccd1 sky130_fd_sc_hd__diode_2
XConfigFSM_inst._142_ ConfigFSM_inst._061_ vssd1 vssd1 vccd1 vccd1 ConfigFSM_inst._062_
+ sky130_fd_sc_hd__buf_4
XConfigFSM_inst._211_ ConfigFSM_inst._102_ vssd1 vssd1 vccd1 vccd1 ConfigFSM_inst._024_
+ sky130_fd_sc_hd__clkbuf_1
XFILLER_0_9_27 vssd1 vssd1 vccd1 vccd1 sky130_ef_sc_hd__decap_12
XFILLER_0_10_41 vssd1 vssd1 vccd1 vccd1 sky130_ef_sc_hd__decap_12
XFILLER_0_10_85 vssd1 vssd1 vccd1 vccd1 sky130_fd_sc_hd__decap_4
XFILLER_0_10_96 vssd1 vssd1 vccd1 vccd1 sky130_fd_sc_hd__fill_2
XFILLER_0_36_6 vssd1 vssd1 vccd1 vccd1 sky130_ef_sc_hd__decap_12
XINST_config_UART._1007_ INST_config_UART._0312_ INST_config_UART._0393_ INST_config_UART._0470_
+ INST_config_UART.CRCReg\[1\] vssd1 vssd1 vccd1 vccd1 INST_config_UART._0471_ sky130_fd_sc_hd__o211ai_2
XFILLER_0_19_94 vssd1 vssd1 vccd1 vccd1 sky130_fd_sc_hd__fill_2
XANTENNA_INST_config_UART._1144__A net39 vssd1 vssd1 vccd1 vccd1 sky130_fd_sc_hd__diode_2
XFILLER_0_15_342 vssd1 vssd1 vccd1 vccd1 sky130_fd_sc_hd__fill_1
XFILLER_0_38_434 vssd1 vssd1 vccd1 vccd1 sky130_fd_sc_hd__fill_2
XFILLER_0_25_128 vssd1 vssd1 vccd1 vccd1 sky130_fd_sc_hd__fill_2
XANTENNA_Inst_bitbang._448__RESET_B net111 vssd1 vssd1 vccd1 vccd1 sky130_fd_sc_hd__diode_2
X_114_ _028_ vssd1 vssd1 vccd1 vccd1 ConfigFSM_inst.WriteData\[11\] sky130_fd_sc_hd__buf_2
XFILLER_0_29_434 vssd1 vssd1 vccd1 vccd1 sky130_fd_sc_hd__fill_2
XANTENNA_ConfigFSM_inst._266__CLK net1 vssd1 vssd1 vccd1 vccd1 sky130_fd_sc_hd__diode_2
XANTENNA_INST_config_UART._1272__RESET_B net112 vssd1 vssd1 vccd1 vccd1 sky130_fd_sc_hd__diode_2
XANTENNA_INST_config_UART._1201__RESET_B net112 vssd1 vssd1 vccd1 vccd1 sky130_fd_sc_hd__diode_2
XANTENNA_INST_config_UART._1312__CLK net1 vssd1 vssd1 vccd1 vccd1 sky130_fd_sc_hd__diode_2
XFILLER_0_29_478 vssd1 vssd1 vccd1 vccd1 sky130_fd_sc_hd__fill_2
XConfigFSM_inst._125_ ConfigFSM_inst.WriteData\[17\] ConfigFSM_inst.WriteData\[16\]
+ ConfigFSM_inst.WriteData\[19\] ConfigFSM_inst.WriteData\[14\] vssd1 vssd1 vccd1
+ vccd1 ConfigFSM_inst._046_ sky130_fd_sc_hd__or4b_1
XFILLER_0_24_183 vssd1 vssd1 vccd1 vccd1 sky130_fd_sc_hd__fill_1
XFILLER_0_12_334 vssd1 vssd1 vccd1 vccd1 sky130_fd_sc_hd__decap_3
XFILLER_0_34_3 vssd1 vssd1 vccd1 vccd1 sky130_ef_sc_hd__decap_12
XFILLER_0_39_209 vssd1 vssd1 vccd1 vccd1 sky130_fd_sc_hd__decap_4
XFILLER_0_26_29 vssd1 vssd1 vccd1 vccd1 sky130_fd_sc_hd__decap_4
XFILLER_0_38_253 vssd1 vssd1 vccd1 vccd1 sky130_fd_sc_hd__fill_1
XANTENNA_INST_config_UART._1335__CLK net1 vssd1 vssd1 vccd1 vccd1 sky130_fd_sc_hd__diode_2
XFILLER_0_34_481 vssd1 vssd1 vccd1 vccd1 sky130_fd_sc_hd__fill_2
XTAP_348 vssd1 vccd1 sky130_fd_sc_hd__tapvpwrvgnd_1
XTAP_337 vssd1 vccd1 sky130_fd_sc_hd__tapvpwrvgnd_1
XTAP_326 vssd1 vccd1 sky130_fd_sc_hd__tapvpwrvgnd_1
XTAP_315 vssd1 vccd1 sky130_fd_sc_hd__tapvpwrvgnd_1
XTAP_304 vssd1 vccd1 sky130_fd_sc_hd__tapvpwrvgnd_1
XANTENNA_INST_config_UART._0623__C_N INST_config_UART.ReceivedWord\[5\] vssd1 vssd1
+ vccd1 vccd1 sky130_fd_sc_hd__diode_2
XINST_config_UART._1341_ net1 INST_config_UART._0004_ net112 vssd1 vssd1 vccd1 vccd1
+ INST_config_UART.ComCount\[1\] sky130_fd_sc_hd__dfrtp_1
XINST_config_UART._1272_ net1 INST_config_UART._0130_ net112 vssd1 vssd1 vccd1 vccd1
+ INST_config_UART.WriteData\[24\] sky130_fd_sc_hd__dfrtp_1
XTAP_359 vssd1 vccd1 sky130_fd_sc_hd__tapvpwrvgnd_1
XANTENNA_Inst_bitbang._366__CLK net1 vssd1 vssd1 vccd1 vccd1 sky130_fd_sc_hd__diode_2
XFILLER_0_29_220 vssd1 vssd1 vccd1 vccd1 sky130_fd_sc_hd__fill_2
XFILLER_0_8_136 vssd1 vssd1 vccd1 vccd1 sky130_fd_sc_hd__fill_2
XINST_config_UART._0987_ INST_config_UART._0216_ INST_config_UART.GetWordState\[0\]
+ INST_config_UART._0322_ vssd1 vssd1 vccd1 vccd1 INST_config_UART._0456_ sky130_fd_sc_hd__and3_1
XInst_bitbang._430_ net1 net38 net111 vssd1 vssd1 vccd1 vccd1 Inst_bitbang.s_data_sample\[0\]
+ sky130_fd_sc_hd__dfrtp_1
XFILLER_0_32_418 vssd1 vssd1 vccd1 vccd1 sky130_fd_sc_hd__fill_2
XFILLER_0_25_481 vssd1 vssd1 vccd1 vccd1 sky130_fd_sc_hd__decap_3
XInst_bitbang._361_ Inst_bitbang._180_ vssd1 vssd1 vccd1 vccd1 Inst_bitbang._082_
+ sky130_fd_sc_hd__clkbuf_1
XFILLER_0_4_375 vssd1 vssd1 vccd1 vccd1 sky130_fd_sc_hd__fill_1
XANTENNA_INST_config_UART._1208__CLK net1 vssd1 vssd1 vccd1 vccd1 sky130_fd_sc_hd__diode_2
XInst_bitbang._292_ Inst_bitbang._144_ vssd1 vssd1 vccd1 vccd1 Inst_bitbang._049_
+ sky130_fd_sc_hd__clkbuf_1
XANTENNA_INST_config_UART._1194__RESET_B net36 vssd1 vssd1 vccd1 vccd1 sky130_fd_sc_hd__diode_2
XANTENNA_INST_config_UART._1358__CLK net1 vssd1 vssd1 vccd1 vccd1 sky130_fd_sc_hd__diode_2
Xoutput64 net64 vssd1 vssd1 vccd1 vccd1 ConfigWriteData[31] sky130_fd_sc_hd__clkbuf_4
Xoutput53 net53 vssd1 vssd1 vccd1 vccd1 ConfigWriteData[21] sky130_fd_sc_hd__buf_2
Xoutput42 net42 vssd1 vssd1 vccd1 vccd1 ConfigWriteData[11] sky130_fd_sc_hd__clkbuf_4
XFILLER_0_31_473 vssd1 vssd1 vccd1 vccd1 sky130_fd_sc_hd__fill_2
XFILLER_0_16_481 vssd1 vssd1 vccd1 vccd1 sky130_fd_sc_hd__fill_2
Xoutput75 net75 vssd1 vssd1 vccd1 vccd1 FrameAddressRegister[11] sky130_fd_sc_hd__buf_2
XFILLER_0_37_39 vssd1 vssd1 vccd1 vccd1 sky130_ef_sc_hd__decap_12
Xoutput86 net86 vssd1 vssd1 vccd1 vccd1 FrameAddressRegister[22] sky130_fd_sc_hd__clkbuf_4
XANTENNA_Inst_bitbang._389__CLK net1 vssd1 vssd1 vccd1 vccd1 sky130_fd_sc_hd__diode_2
Xoutput97 net97 vssd1 vssd1 vccd1 vccd1 FrameAddressRegister[3] sky130_fd_sc_hd__buf_2
XINST_config_UART._0772_ INST_config_UART._0247_ INST_config_UART.Data_Reg\[2\] vssd1
+ vssd1 vccd1 vccd1 INST_config_UART._0317_ sky130_fd_sc_hd__or2_1
XINST_config_UART._0910_ INST_config_UART._0407_ vssd1 vssd1 vccd1 vccd1 INST_config_UART._0408_
+ sky130_fd_sc_hd__inv_2
XINST_config_UART._0841_ INST_config_UART._0359_ vssd1 vssd1 vccd1 vccd1 INST_config_UART._0084_
+ sky130_fd_sc_hd__clkbuf_1
XINST_config_UART._1324_ net1 INST_config_UART._0159_ net36 vssd1 vssd1 vccd1 vccd1
+ INST_config_UART.ID_Reg\[0\] sky130_fd_sc_hd__dfrtp_1
XFILLER_0_22_473 vssd1 vssd1 vccd1 vccd1 sky130_fd_sc_hd__decap_3
XINST_config_UART._1186_ net1 INST_config_UART._0055_ net111 vssd1 vssd1 vccd1 vccd1
+ INST_config_UART.ReceivedWord\[2\] sky130_fd_sc_hd__dfrtp_1
XINST_config_UART._1255_ net1 INST_config_UART._0116_ net111 vssd1 vssd1 vccd1 vccd1
+ INST_config_UART.TimeToSendCounter\[2\] sky130_fd_sc_hd__dfrtp_1
XTAP_112 vssd1 vccd1 sky130_fd_sc_hd__tapvpwrvgnd_1
XTAP_101 vssd1 vccd1 sky130_fd_sc_hd__tapvpwrvgnd_1
XTAP_123 vssd1 vccd1 sky130_fd_sc_hd__tapvpwrvgnd_1
XTAP_134 vssd1 vccd1 sky130_fd_sc_hd__tapvpwrvgnd_1
XTAP_145 vssd1 vccd1 sky130_fd_sc_hd__tapvpwrvgnd_1
XTAP_156 vssd1 vccd1 sky130_fd_sc_hd__tapvpwrvgnd_1
XTAP_167 vssd1 vccd1 sky130_fd_sc_hd__tapvpwrvgnd_1
XTAP_178 vssd1 vccd1 sky130_fd_sc_hd__tapvpwrvgnd_1
XTAP_189 vssd1 vccd1 sky130_fd_sc_hd__tapvpwrvgnd_1
XANTENNA_ConfigFSM_inst._237__A0 ConfigFSM_inst.WriteData\[28\] vssd1 vssd1 vccd1
+ vccd1 sky130_fd_sc_hd__diode_2
XFILLER_0_9_467 vssd1 vssd1 vccd1 vccd1 sky130_fd_sc_hd__fill_2
XInst_bitbang._275_ Inst_bitbang._135_ vssd1 vssd1 vccd1 vccd1 Inst_bitbang._041_
+ sky130_fd_sc_hd__clkbuf_1
XANTENNA_INST_config_UART._1304__RESET_B net111 vssd1 vssd1 vccd1 vccd1 sky130_fd_sc_hd__diode_2
XInst_bitbang._413_ net1 Inst_bitbang._050_ net36 vssd1 vssd1 vccd1 vccd1 Inst_bitbang.serial_data\[15\]
+ sky130_fd_sc_hd__dfrtp_1
XInst_bitbang._344_ Inst_bitbang.serial_control\[6\] Inst_bitbang.serial_control\[7\]
+ Inst_bitbang._164_ vssd1 vssd1 vccd1 vccd1 Inst_bitbang._172_ sky130_fd_sc_hd__mux2_1
XFILLER_0_13_473 vssd1 vssd1 vccd1 vccd1 sky130_fd_sc_hd__fill_2
XFILLER_0_2_8 vssd1 vssd1 vccd1 vccd1 sky130_fd_sc_hd__fill_2
XANTENNA_INST_config_UART._1180__CLK net1 vssd1 vssd1 vccd1 vccd1 sky130_fd_sc_hd__diode_2
XINST_config_UART._1040_ INST_config_UART.ReceivedWord\[6\] INST_config_UART.HighReg\[2\]
+ INST_config_UART.Command\[7\] vssd1 vssd1 vccd1 vccd1 INST_config_UART._0499_ sky130_fd_sc_hd__mux2_1
XFILLER_0_31_281 vssd1 vssd1 vccd1 vccd1 sky130_fd_sc_hd__fill_1
XANTENNA_Inst_bitbang._404__CLK net1 vssd1 vssd1 vccd1 vccd1 sky130_fd_sc_hd__diode_2
XINST_config_UART._0755_ INST_config_UART._0304_ INST_config_UART._0305_ vssd1 vssd1
+ vccd1 vccd1 INST_config_UART._0044_ sky130_fd_sc_hd__nand2_1
XANTENNA_ConfigFSM_inst._257__RESET_B net112 vssd1 vssd1 vccd1 vccd1 sky130_fd_sc_hd__diode_2
XFILLER_0_6_459 vssd1 vssd1 vccd1 vccd1 sky130_fd_sc_hd__fill_2
XINST_config_UART._0824_ INST_config_UART.ComTick vssd1 vssd1 vccd1 vccd1 INST_config_UART._0347_
+ sky130_fd_sc_hd__clkbuf_2
XINST_config_UART._1307_ net1 INST_config_UART._0142_ net36 vssd1 vssd1 vccd1 vccd1
+ INST_config_UART.CRCReg\[4\] sky130_fd_sc_hd__dfrtp_1
XINST_config_UART._0686_ INST_config_UART.ComCount\[4\] INST_config_UART._0253_ vssd1
+ vssd1 vccd1 vccd1 INST_config_UART._0267_ sky130_fd_sc_hd__nand2_1
XFILLER_0_38_93 vssd1 vssd1 vccd1 vccd1 sky130_fd_sc_hd__fill_2
XINST_config_UART._1238_ net1 INST_config_UART._0016_ net111 vssd1 vssd1 vccd1 vccd1
+ INST_config_UART.ReceiveState sky130_fd_sc_hd__dfstp_1
XFILLER_0_1_197 vssd1 vssd1 vccd1 vccd1 sky130_fd_sc_hd__fill_1
XANTENNA_Inst_bitbang._385__RESET_B net112 vssd1 vssd1 vccd1 vccd1 sky130_fd_sc_hd__diode_2
XINST_config_UART._1169_ INST_config_UART.ComState\[5\] INST_config_UART.ComState\[8\]
+ INST_config_UART._0350_ vssd1 vssd1 vccd1 vccd1 INST_config_UART._0585_ sky130_fd_sc_hd__mux2_1
XFILLER_0_5_481 vssd1 vssd1 vccd1 vccd1 sky130_fd_sc_hd__fill_2
XInst_bitbang._327_ Inst_bitbang._162_ vssd1 vssd1 vccd1 vccd1 Inst_bitbang._066_
+ sky130_fd_sc_hd__clkbuf_1
XInst_bitbang._258_ Inst_bitbang.serial_data\[31\] Inst_bitbang.data\[31\] Inst_bitbang._087_
+ vssd1 vssd1 vccd1 vccd1 Inst_bitbang._126_ sky130_fd_sc_hd__mux2_1
XANTENNA_Inst_bitbang._198__S Inst_bitbang._088_ vssd1 vssd1 vccd1 vccd1 sky130_fd_sc_hd__diode_2
XFILLER_0_34_29 vssd1 vssd1 vccd1 vccd1 sky130_fd_sc_hd__decap_8
XInst_bitbang._189_ Inst_bitbang._089_ vssd1 vssd1 vccd1 vccd1 Inst_bitbang._001_
+ sky130_fd_sc_hd__clkbuf_1
XANTENNA_INST_config_UART._1297__RESET_B net111 vssd1 vssd1 vccd1 vccd1 sky130_fd_sc_hd__diode_2
XANTENNA_Inst_bitbang._427__CLK net1 vssd1 vssd1 vccd1 vccd1 sky130_fd_sc_hd__diode_2
XANTENNA_INST_config_UART._1226__RESET_B net112 vssd1 vssd1 vccd1 vccd1 sky130_fd_sc_hd__diode_2
XINST_config_UART._1023_ INST_config_UART._0484_ INST_config_UART._0478_ vssd1 vssd1
+ vccd1 vccd1 INST_config_UART._0485_ sky130_fd_sc_hd__nand2_1