* NGSPICE file created from LUT4AB.ext - technology: sky130A

* Black-box entry subcircuit for sky130_fd_sc_hd__dlxbp_1 abstract view
.subckt sky130_fd_sc_hd__dlxbp_1 D GATE VGND VNB VPB VPWR Q Q_N
.ends

* Black-box entry subcircuit for sky130_fd_sc_hd__tapvpwrvgnd_1 abstract view
.subckt sky130_fd_sc_hd__tapvpwrvgnd_1 VGND VPWR
.ends

* Black-box entry subcircuit for sky130_fd_sc_hd__clkbuf_2 abstract view
.subckt sky130_fd_sc_hd__clkbuf_2 A VGND VNB VPB VPWR X
.ends

* Black-box entry subcircuit for sky130_fd_sc_hd__fill_2 abstract view
.subckt sky130_fd_sc_hd__fill_2 VGND VNB VPB VPWR
.ends

* Black-box entry subcircuit for sky130_fd_sc_hd__diode_2 abstract view
.subckt sky130_fd_sc_hd__diode_2 DIODE VGND VNB VPB VPWR
.ends

* Black-box entry subcircuit for sky130_fd_sc_hd__fill_1 abstract view
.subckt sky130_fd_sc_hd__fill_1 VGND VNB VPB VPWR
.ends

* Black-box entry subcircuit for sky130_ef_sc_hd__decap_12 abstract view
.subckt sky130_ef_sc_hd__decap_12 VGND VNB VPB VPWR
.ends

* Black-box entry subcircuit for sky130_fd_sc_hd__decap_4 abstract view
.subckt sky130_fd_sc_hd__decap_4 VGND VNB VPB VPWR
.ends

* Black-box entry subcircuit for sky130_fd_sc_hd__decap_3 abstract view
.subckt sky130_fd_sc_hd__decap_3 VGND VNB VPB VPWR
.ends

* Black-box entry subcircuit for sky130_fd_sc_hd__mux4_1 abstract view
.subckt sky130_fd_sc_hd__mux4_1 A0 A1 A2 A3 S0 S1 VGND VNB VPB VPWR X
.ends

* Black-box entry subcircuit for sky130_fd_sc_hd__buf_2 abstract view
.subckt sky130_fd_sc_hd__buf_2 A VGND VNB VPB VPWR X
.ends

* Black-box entry subcircuit for sky130_fd_sc_hd__clkbuf_4 abstract view
.subckt sky130_fd_sc_hd__clkbuf_4 A VGND VNB VPB VPWR X
.ends

* Black-box entry subcircuit for sky130_fd_sc_hd__clkbuf_1 abstract view
.subckt sky130_fd_sc_hd__clkbuf_1 A VGND VNB VPB VPWR X
.ends

* Black-box entry subcircuit for sky130_fd_sc_hd__inv_2 abstract view
.subckt sky130_fd_sc_hd__inv_2 A VGND VNB VPB VPWR Y
.ends

* Black-box entry subcircuit for sky130_fd_sc_hd__mux4_2 abstract view
.subckt sky130_fd_sc_hd__mux4_2 A0 A1 A2 A3 S0 S1 VGND VNB VPB VPWR X
.ends

* Black-box entry subcircuit for sky130_fd_sc_hd__mux2_8 abstract view
.subckt sky130_fd_sc_hd__mux2_8 A0 A1 S VGND VNB VPB VPWR X
.ends

* Black-box entry subcircuit for sky130_fd_sc_hd__conb_1 abstract view
.subckt sky130_fd_sc_hd__conb_1 VGND VNB VPB VPWR HI LO
.ends

* Black-box entry subcircuit for sky130_fd_sc_hd__decap_8 abstract view
.subckt sky130_fd_sc_hd__decap_8 VGND VNB VPB VPWR
.ends

* Black-box entry subcircuit for sky130_fd_sc_hd__buf_1 abstract view
.subckt sky130_fd_sc_hd__buf_1 A VGND VNB VPB VPWR X
.ends

* Black-box entry subcircuit for sky130_fd_sc_hd__decap_6 abstract view
.subckt sky130_fd_sc_hd__decap_6 VGND VNB VPB VPWR
.ends

* Black-box entry subcircuit for sky130_fd_sc_hd__mux2_2 abstract view
.subckt sky130_fd_sc_hd__mux2_2 A0 A1 S VGND VNB VPB VPWR X
.ends

* Black-box entry subcircuit for sky130_fd_sc_hd__mux2_1 abstract view
.subckt sky130_fd_sc_hd__mux2_1 A0 A1 S VGND VNB VPB VPWR X
.ends

* Black-box entry subcircuit for sky130_fd_sc_hd__dlygate4sd3_1 abstract view
.subckt sky130_fd_sc_hd__dlygate4sd3_1 A VGND VNB VPB VPWR X
.ends

* Black-box entry subcircuit for sky130_fd_sc_hd__clkbuf_16 abstract view
.subckt sky130_fd_sc_hd__clkbuf_16 A VGND VNB VPB VPWR X
.ends

* Black-box entry subcircuit for sky130_fd_sc_hd__dlymetal6s2s_1 abstract view
.subckt sky130_fd_sc_hd__dlymetal6s2s_1 A VGND VNB VPB VPWR X
.ends

* Black-box entry subcircuit for sky130_fd_sc_hd__buf_4 abstract view
.subckt sky130_fd_sc_hd__buf_4 A VGND VNB VPB VPWR X
.ends

* Black-box entry subcircuit for sky130_fd_sc_hd__dfxtp_1 abstract view
.subckt sky130_fd_sc_hd__dfxtp_1 CLK D VGND VNB VPB VPWR Q
.ends

* Black-box entry subcircuit for sky130_fd_sc_hd__a21o_1 abstract view
.subckt sky130_fd_sc_hd__a21o_1 A1 A2 B1 VGND VNB VPB VPWR X
.ends

* Black-box entry subcircuit for sky130_fd_sc_hd__buf_8 abstract view
.subckt sky130_fd_sc_hd__buf_8 A VGND VNB VPB VPWR X
.ends

* Black-box entry subcircuit for sky130_fd_sc_hd__o21a_1 abstract view
.subckt sky130_fd_sc_hd__o21a_1 A1 A2 B1 VGND VNB VPB VPWR X
.ends

* Black-box entry subcircuit for sky130_fd_sc_hd__mux2_4 abstract view
.subckt sky130_fd_sc_hd__mux2_4 A0 A1 S VGND VNB VPB VPWR X
.ends

* Black-box entry subcircuit for sky130_fd_sc_hd__buf_12 abstract view
.subckt sky130_fd_sc_hd__buf_12 A VGND VNB VPB VPWR X
.ends

* Black-box entry subcircuit for sky130_fd_sc_hd__clkbuf_8 abstract view
.subckt sky130_fd_sc_hd__clkbuf_8 A VGND VNB VPB VPWR X
.ends

.subckt LUT4AB Ci Co E1BEG[0] E1BEG[1] E1BEG[2] E1BEG[3] E1END[0] E1END[1] E1END[2]
+ E1END[3] E2BEG[0] E2BEG[1] E2BEG[2] E2BEG[3] E2BEG[4] E2BEG[5] E2BEG[6] E2BEG[7]
+ E2BEGb[0] E2BEGb[1] E2BEGb[2] E2BEGb[3] E2BEGb[4] E2BEGb[5] E2BEGb[6] E2BEGb[7]
+ E2END[0] E2END[1] E2END[2] E2END[3] E2END[4] E2END[5] E2END[6] E2END[7] E2MID[0]
+ E2MID[1] E2MID[2] E2MID[3] E2MID[4] E2MID[5] E2MID[6] E2MID[7] E6BEG[0] E6BEG[10]
+ E6BEG[11] E6BEG[1] E6BEG[2] E6BEG[3] E6BEG[4] E6BEG[5] E6BEG[6] E6BEG[7] E6BEG[8]
+ E6BEG[9] E6END[0] E6END[10] E6END[11] E6END[1] E6END[2] E6END[3] E6END[4] E6END[5]
+ E6END[6] E6END[7] E6END[8] E6END[9] EE4BEG[0] EE4BEG[10] EE4BEG[11] EE4BEG[12] EE4BEG[13]
+ EE4BEG[14] EE4BEG[15] EE4BEG[1] EE4BEG[2] EE4BEG[3] EE4BEG[4] EE4BEG[5] EE4BEG[6]
+ EE4BEG[7] EE4BEG[8] EE4BEG[9] EE4END[0] EE4END[10] EE4END[11] EE4END[12] EE4END[13]
+ EE4END[14] EE4END[15] EE4END[1] EE4END[2] EE4END[3] EE4END[4] EE4END[5] EE4END[6]
+ EE4END[7] EE4END[8] EE4END[9] FrameData[0] FrameData[10] FrameData[11] FrameData[12]
+ FrameData[13] FrameData[14] FrameData[15] FrameData[16] FrameData[17] FrameData[18]
+ FrameData[19] FrameData[1] FrameData[20] FrameData[21] FrameData[22] FrameData[23]
+ FrameData[24] FrameData[25] FrameData[26] FrameData[27] FrameData[28] FrameData[29]
+ FrameData[2] FrameData[30] FrameData[31] FrameData[3] FrameData[4] FrameData[5]
+ FrameData[6] FrameData[7] FrameData[8] FrameData[9] FrameData_O[0] FrameData_O[10]
+ FrameData_O[11] FrameData_O[12] FrameData_O[13] FrameData_O[14] FrameData_O[15]
+ FrameData_O[16] FrameData_O[17] FrameData_O[18] FrameData_O[19] FrameData_O[1] FrameData_O[20]
+ FrameData_O[21] FrameData_O[22] FrameData_O[23] FrameData_O[24] FrameData_O[25]
+ FrameData_O[26] FrameData_O[27] FrameData_O[28] FrameData_O[29] FrameData_O[2] FrameData_O[30]
+ FrameData_O[31] FrameData_O[3] FrameData_O[4] FrameData_O[5] FrameData_O[6] FrameData_O[7]
+ FrameData_O[8] FrameData_O[9] FrameStrobe[0] FrameStrobe[10] FrameStrobe[11] FrameStrobe[12]
+ FrameStrobe[13] FrameStrobe[14] FrameStrobe[15] FrameStrobe[16] FrameStrobe[17]
+ FrameStrobe[18] FrameStrobe[19] FrameStrobe[1] FrameStrobe[2] FrameStrobe[3] FrameStrobe[4]
+ FrameStrobe[5] FrameStrobe[6] FrameStrobe[7] FrameStrobe[8] FrameStrobe[9] FrameStrobe_O[0]
+ FrameStrobe_O[10] FrameStrobe_O[11] FrameStrobe_O[12] FrameStrobe_O[13] FrameStrobe_O[14]
+ FrameStrobe_O[15] FrameStrobe_O[16] FrameStrobe_O[17] FrameStrobe_O[18] FrameStrobe_O[19]
+ FrameStrobe_O[1] FrameStrobe_O[2] FrameStrobe_O[3] FrameStrobe_O[4] FrameStrobe_O[5]
+ FrameStrobe_O[6] FrameStrobe_O[7] FrameStrobe_O[8] FrameStrobe_O[9] N1BEG[0] N1BEG[1]
+ N1BEG[2] N1BEG[3] N1END[0] N1END[1] N1END[2] N1END[3] N2BEG[0] N2BEG[1] N2BEG[2]
+ N2BEG[3] N2BEG[4] N2BEG[5] N2BEG[6] N2BEG[7] N2BEGb[0] N2BEGb[1] N2BEGb[2] N2BEGb[3]
+ N2BEGb[4] N2BEGb[5] N2BEGb[6] N2BEGb[7] N2END[0] N2END[1] N2END[2] N2END[3] N2END[4]
+ N2END[5] N2END[6] N2END[7] N2MID[0] N2MID[1] N2MID[2] N2MID[3] N2MID[4] N2MID[5]
+ N2MID[6] N2MID[7] N4BEG[0] N4BEG[10] N4BEG[11] N4BEG[12] N4BEG[13] N4BEG[14] N4BEG[15]
+ N4BEG[1] N4BEG[2] N4BEG[3] N4BEG[4] N4BEG[5] N4BEG[6] N4BEG[7] N4BEG[8] N4BEG[9]
+ N4END[0] N4END[10] N4END[11] N4END[12] N4END[13] N4END[14] N4END[15] N4END[1] N4END[2]
+ N4END[3] N4END[4] N4END[5] N4END[6] N4END[7] N4END[8] N4END[9] NN4BEG[0] NN4BEG[10]
+ NN4BEG[11] NN4BEG[12] NN4BEG[13] NN4BEG[14] NN4BEG[15] NN4BEG[1] NN4BEG[2] NN4BEG[3]
+ NN4BEG[4] NN4BEG[5] NN4BEG[6] NN4BEG[7] NN4BEG[8] NN4BEG[9] NN4END[0] NN4END[10]
+ NN4END[11] NN4END[12] NN4END[13] NN4END[14] NN4END[15] NN4END[1] NN4END[2] NN4END[3]
+ NN4END[4] NN4END[5] NN4END[6] NN4END[7] NN4END[8] NN4END[9] S1BEG[0] S1BEG[1] S1BEG[2]
+ S1BEG[3] S1END[0] S1END[1] S1END[2] S1END[3] S2BEG[0] S2BEG[1] S2BEG[2] S2BEG[3]
+ S2BEG[4] S2BEG[5] S2BEG[6] S2BEG[7] S2BEGb[0] S2BEGb[1] S2BEGb[2] S2BEGb[3] S2BEGb[4]
+ S2BEGb[5] S2BEGb[6] S2BEGb[7] S2END[0] S2END[1] S2END[2] S2END[3] S2END[4] S2END[5]
+ S2END[6] S2END[7] S2MID[0] S2MID[1] S2MID[2] S2MID[3] S2MID[4] S2MID[5] S2MID[6]
+ S2MID[7] S4BEG[0] S4BEG[10] S4BEG[11] S4BEG[12] S4BEG[13] S4BEG[14] S4BEG[15] S4BEG[1]
+ S4BEG[2] S4BEG[3] S4BEG[4] S4BEG[5] S4BEG[6] S4BEG[7] S4BEG[8] S4BEG[9] S4END[0]
+ S4END[10] S4END[11] S4END[12] S4END[13] S4END[14] S4END[15] S4END[1] S4END[2] S4END[3]
+ S4END[4] S4END[5] S4END[6] S4END[7] S4END[8] S4END[9] SS4BEG[0] SS4BEG[10] SS4BEG[11]
+ SS4BEG[12] SS4BEG[13] SS4BEG[14] SS4BEG[15] SS4BEG[1] SS4BEG[2] SS4BEG[3] SS4BEG[4]
+ SS4BEG[5] SS4BEG[6] SS4BEG[7] SS4BEG[8] SS4BEG[9] SS4END[0] SS4END[10] SS4END[11]
+ SS4END[12] SS4END[13] SS4END[14] SS4END[15] SS4END[1] SS4END[2] SS4END[3] SS4END[4]
+ SS4END[5] SS4END[6] SS4END[7] SS4END[8] SS4END[9] UserCLK UserCLKo W1BEG[0] W1BEG[1]
+ W1BEG[2] W1BEG[3] W1END[0] W1END[1] W1END[2] W1END[3] W2BEG[0] W2BEG[1] W2BEG[2]
+ W2BEG[3] W2BEG[4] W2BEG[5] W2BEG[6] W2BEG[7] W2BEGb[0] W2BEGb[1] W2BEGb[2] W2BEGb[3]
+ W2BEGb[4] W2BEGb[5] W2BEGb[6] W2BEGb[7] W2END[0] W2END[1] W2END[2] W2END[3] W2END[4]
+ W2END[5] W2END[6] W2END[7] W2MID[0] W2MID[1] W2MID[2] W2MID[3] W2MID[4] W2MID[5]
+ W2MID[6] W2MID[7] W6BEG[0] W6BEG[10] W6BEG[11] W6BEG[1] W6BEG[2] W6BEG[3] W6BEG[4]
+ W6BEG[5] W6BEG[6] W6BEG[7] W6BEG[8] W6BEG[9] W6END[0] W6END[10] W6END[11] W6END[1]
+ W6END[2] W6END[3] W6END[4] W6END[5] W6END[6] W6END[7] W6END[8] W6END[9] WW4BEG[0]
+ WW4BEG[10] WW4BEG[11] WW4BEG[12] WW4BEG[13] WW4BEG[14] WW4BEG[15] WW4BEG[1] WW4BEG[2]
+ WW4BEG[3] WW4BEG[4] WW4BEG[5] WW4BEG[6] WW4BEG[7] WW4BEG[8] WW4BEG[9] WW4END[0]
+ WW4END[10] WW4END[11] WW4END[12] WW4END[13] WW4END[14] WW4END[15] WW4END[1] WW4END[2]
+ WW4END[3] WW4END[4] WW4END[5] WW4END[6] WW4END[7] WW4END[8] WW4END[9] vccd1 vssd1
XInst_LUT4AB_ConfigMem_Inst_Frame2_bit11 input52/X input94/X vssd1 vssd1 vccd1 vccd1
+ Inst_LUT4AB_ConfigMem_Inst_Frame2_bit11/Q Inst_LUT4AB_ConfigMem_Inst_Frame2_bit11/Q_N
+ sky130_fd_sc_hd__dlxbp_1
XTAP_199 vssd1 vccd1 sky130_fd_sc_hd__tapvpwrvgnd_1
XTAP_177 vssd1 vccd1 sky130_fd_sc_hd__tapvpwrvgnd_1
XTAP_188 vssd1 vccd1 sky130_fd_sc_hd__tapvpwrvgnd_1
XW6END_inbuf_0__0_ input230/X vssd1 vssd1 vccd1 vccd1 W6END_inbuf_0__0_/X sky130_fd_sc_hd__clkbuf_2
XFILLER_0_27_71 vssd1 vssd1 vccd1 vccd1 sky130_fd_sc_hd__fill_2
XInst_LUT4AB_ConfigMem_Inst_Frame2_bit22 input64/X input94/X vssd1 vssd1 vccd1 vccd1
+ Inst_LUT4AB_ConfigMem_Inst_Frame2_bit22/Q Inst_LUT4AB_ConfigMem_Inst_Frame2_bit22/Q_N
+ sky130_fd_sc_hd__dlxbp_1
XANTENNA_Inst_LUT4AB_ConfigMem_Inst_Frame5_bit28_GATE input97/X vssd1 vssd1 vccd1
+ vccd1 sky130_fd_sc_hd__diode_2
XANTENNA_Inst_LUT4AB_ConfigMem_Inst_Frame2_bit19_GATE input94/X vssd1 vssd1 vccd1
+ vccd1 sky130_fd_sc_hd__diode_2
XFILLER_0_49_369 vssd1 vssd1 vccd1 vccd1 sky130_fd_sc_hd__fill_2
XFILLER_0_57_391 vssd1 vssd1 vccd1 vccd1 sky130_fd_sc_hd__fill_1
XFILLER_0_72_394 vssd1 vssd1 vccd1 vccd1 sky130_ef_sc_hd__decap_12
XANTENNA_Inst_LUT4AB_switch_matrix_inst_cus_mux161_buf_JS2BEG1_cus_mux41_buf_inst2_A1
+ Inst_LUT4AB_switch_matrix__034_/A vssd1 vssd1 vccd1 vccd1 sky130_fd_sc_hd__diode_2
XFILLER_0_20_409 vssd1 vssd1 vccd1 vccd1 sky130_fd_sc_hd__decap_4
XANTENNA_Inst_LUT4AB_ConfigMem_Inst_Frame17_bit20_D input62/X vssd1 vssd1 vccd1 vccd1
+ sky130_fd_sc_hd__diode_2
XANTENNA_Inst_LUT4AB_switch_matrix_inst_cus_mux161_buf_JW2BEG5_cus_mux41_buf_inst0_A3
+ input12/X vssd1 vssd1 vccd1 vccd1 sky130_fd_sc_hd__diode_2
XFILLER_0_67_166 vssd1 vssd1 vccd1 vccd1 sky130_fd_sc_hd__fill_2
XANTENNA_data_inbuf_11__0__A input52/X vssd1 vssd1 vccd1 vccd1 sky130_fd_sc_hd__diode_2
XANTENNA_Inst_LUT4AB_ConfigMem_Inst_Frame2_bit27_D input69/X vssd1 vssd1 vccd1 vccd1
+ sky130_fd_sc_hd__diode_2
XInst_LUT4AB_ConfigMem_Inst_Frame12_bit19 input60/X input85/X vssd1 vssd1 vccd1 vccd1
+ Inst_LUT4AB_ConfigMem_Inst_Frame12_bit19/Q Inst_LUT4AB_ConfigMem_Inst_Frame12_bit19/Q_N
+ sky130_fd_sc_hd__dlxbp_1
XFILLER_0_70_309 vssd1 vssd1 vccd1 vccd1 sky130_fd_sc_hd__decap_4
XFILLER_0_63_350 vssd1 vssd1 vccd1 vccd1 sky130_fd_sc_hd__decap_3
XFILLER_0_23_214 vssd1 vssd1 vccd1 vccd1 sky130_fd_sc_hd__fill_2
XANTENNA_Inst_LUT4AB_switch_matrix__081__A Inst_LUT4AB_switch_matrix__081_/A vssd1
+ vssd1 vccd1 vccd1 sky130_fd_sc_hd__diode_2
XFILLER_0_23_225 vssd1 vssd1 vccd1 vccd1 sky130_fd_sc_hd__fill_2
XANTENNA_Inst_LUT4AB_switch_matrix_inst_cus_mux161_buf_JN2BEG1_cus_mux41_buf_inst3_A2
+ Inst_LUT4AB_switch_matrix__056_/A vssd1 vssd1 vccd1 vccd1 sky130_fd_sc_hd__diode_2
XANTENNA_data_inbuf_26__0__A input68/X vssd1 vssd1 vccd1 vccd1 sky130_fd_sc_hd__diode_2
XFILLER_0_11_409 vssd1 vssd1 vccd1 vccd1 sky130_fd_sc_hd__fill_2
XANTENNA_Inst_LUT4AB_ConfigMem_Inst_Frame12_bit2_D input72/X vssd1 vssd1 vccd1 vccd1
+ sky130_fd_sc_hd__diode_2
XFILLER_0_3_39 vssd1 vssd1 vccd1 vccd1 sky130_fd_sc_hd__fill_2
XANTENNA_Inst_LUT4AB_ConfigMem_Inst_Frame17_bit3_GATE input90/X vssd1 vssd1 vccd1
+ vccd1 sky130_fd_sc_hd__diode_2
XInst_LE_LUT4c_frame_config_dffesr_inst_cus_mux161_buf_cus_mux41_buf_inst3 Inst_LUT4AB_ConfigMem_Inst_Frame18_bit24/Q
+ Inst_LUT4AB_ConfigMem_Inst_Frame18_bit23/Q Inst_LUT4AB_ConfigMem_Inst_Frame18_bit22/Q
+ Inst_LUT4AB_ConfigMem_Inst_Frame18_bit21/Q Inst_LE_LUT4c_frame_config_dffesr__07_/A
+ Inst_LE_LUT4c_frame_config_dffesr__08_/A vssd1 vssd1 vccd1 vccd1 Inst_LE_LUT4c_frame_config_dffesr_inst_cus_mux161_buf_cus_mux41_buf_inst3/X
+ sky130_fd_sc_hd__mux4_1
XWW4END_inbuf_10__0_ input243/X vssd1 vssd1 vccd1 vccd1 WW4END_inbuf_10__0_/X sky130_fd_sc_hd__clkbuf_2
XInst_LUT4AB_ConfigMem_Inst_Frame5_bit15 input56/X input97/X vssd1 vssd1 vccd1 vccd1
+ Inst_LUT4AB_ConfigMem_Inst_Frame5_bit15/Q Inst_LUT4AB_ConfigMem_Inst_Frame5_bit15/Q_N
+ sky130_fd_sc_hd__dlxbp_1
XFILLER_0_73_169 vssd1 vssd1 vccd1 vccd1 sky130_fd_sc_hd__fill_2
XInst_LUT4AB_ConfigMem_Inst_Frame5_bit26 input68/X input97/X vssd1 vssd1 vccd1 vccd1
+ Inst_LUT4AB_ConfigMem_Inst_Frame5_bit26/Q Inst_LUT4AB_ConfigMem_Inst_Frame5_bit26/Q_N
+ sky130_fd_sc_hd__dlxbp_1
XFILLER_0_6_414 vssd1 vssd1 vccd1 vccd1 sky130_fd_sc_hd__fill_2
XFILLER_0_6_436 vssd1 vssd1 vccd1 vccd1 sky130_fd_sc_hd__fill_2
XFILLER_0_14_214 vssd1 vssd1 vccd1 vccd1 sky130_fd_sc_hd__fill_2
XANTENNA_Inst_LUT4AB_ConfigMem_Inst_Frame7_bit4_GATE input99/X vssd1 vssd1 vccd1 vccd1
+ sky130_fd_sc_hd__diode_2
Xoutput401 output401/A vssd1 vssd1 vccd1 vccd1 NN4BEG[4] sky130_fd_sc_hd__buf_2
Xoutput423 output423/A vssd1 vssd1 vccd1 vccd1 S2BEGb[4] sky130_fd_sc_hd__buf_2
Xoutput412 output412/A vssd1 vssd1 vccd1 vccd1 S2BEG[1] sky130_fd_sc_hd__buf_2
Xoutput434 output434/A vssd1 vssd1 vccd1 vccd1 S4BEG[1] sky130_fd_sc_hd__clkbuf_4
XANTENNA_Inst_LUT4AB_ConfigMem_Inst_Frame13_bit6_D input78/X vssd1 vssd1 vccd1 vccd1
+ sky130_fd_sc_hd__diode_2
Xoutput467 output467/A vssd1 vssd1 vccd1 vccd1 W2BEG[3] sky130_fd_sc_hd__clkbuf_4
XFILLER_0_10_453 vssd1 vssd1 vccd1 vccd1 sky130_fd_sc_hd__fill_2
Xoutput456 output456/A vssd1 vssd1 vccd1 vccd1 SS4BEG[7] sky130_fd_sc_hd__clkbuf_4
Xoutput445 output445/A vssd1 vssd1 vccd1 vccd1 SS4BEG[11] sky130_fd_sc_hd__clkbuf_4
Xoutput478 output478/A vssd1 vssd1 vccd1 vccd1 W2BEGb[6] sky130_fd_sc_hd__clkbuf_4
Xoutput489 output489/A vssd1 vssd1 vccd1 vccd1 W6BEG[7] sky130_fd_sc_hd__clkbuf_4
XN4BEG_outbuf_11__0_ N4END_inbuf_11__0_/X vssd1 vssd1 vccd1 vccd1 output377/A sky130_fd_sc_hd__clkbuf_1
XANTENNA_Inst_LUT4AB_switch_matrix_inst_cus_mux161_buf_JW2BEG1_cus_mux41_buf_inst3_A0
+ Inst_LUT4AB_switch_matrix__054_/A vssd1 vssd1 vccd1 vccd1 sky130_fd_sc_hd__diode_2
XANTENNA_Inst_LUT4AB_switch_matrix_inst_cus_mux41_buf_N4BEG1_A2 input22/X vssd1 vssd1
+ vccd1 vccd1 sky130_fd_sc_hd__diode_2
XInst_LUT4AB_ConfigMem_Inst_Frame14_bit2 input72/X input87/X vssd1 vssd1 vccd1 vccd1
+ Inst_LUT4AB_ConfigMem_Inst_Frame14_bit2/Q Inst_LUT4AB_ConfigMem_Inst_Frame14_bit2/Q_N
+ sky130_fd_sc_hd__dlxbp_1
XFILLER_0_9_285 vssd1 vssd1 vccd1 vccd1 sky130_fd_sc_hd__fill_2
XANTENNA_Inst_LUT4AB_switch_matrix_inst_cus_mux41_buf_LC_I1_A3 Inst_LUT4AB_switch_matrix_inst_cus_mux41_buf_LD_I1/A3
+ vssd1 vssd1 vccd1 vccd1 sky130_fd_sc_hd__diode_2
XANTENNA_Inst_LUT4AB_ConfigMem_Inst_Frame1_bit15_D input56/X vssd1 vssd1 vccd1 vccd1
+ sky130_fd_sc_hd__diode_2
XANTENNA_Inst_LUT4AB_switch_matrix__076__A input117/X vssd1 vssd1 vccd1 vccd1 sky130_fd_sc_hd__diode_2
XFILLER_0_68_453 vssd1 vssd1 vccd1 vccd1 sky130_fd_sc_hd__fill_2
XFILLER_0_28_328 vssd1 vssd1 vccd1 vccd1 sky130_fd_sc_hd__fill_1
XFILLER_0_50_38 vssd1 vssd1 vccd1 vccd1 sky130_fd_sc_hd__fill_2
XFILLER_0_55_169 vssd1 vssd1 vccd1 vccd1 sky130_fd_sc_hd__fill_1
XFILLER_0_70_128 vssd1 vssd1 vccd1 vccd1 sky130_fd_sc_hd__fill_2
XInst_LUT4AB_ConfigMem_Inst_Frame1_bit21 input63/X input93/X vssd1 vssd1 vccd1 vccd1
+ Inst_LUT4AB_ConfigMem_Inst_Frame1_bit21/Q Inst_LUT4AB_ConfigMem_Inst_Frame1_bit21/Q_N
+ sky130_fd_sc_hd__dlxbp_1
XInst_LUT4AB_ConfigMem_Inst_Frame1_bit10 input51/X input93/X vssd1 vssd1 vccd1 vccd1
+ Inst_LUT4AB_ConfigMem_Inst_Frame1_bit10/Q Inst_LUT4AB_ConfigMem_Inst_Frame1_bit10/Q_N
+ sky130_fd_sc_hd__dlxbp_1
XS4END_inbuf_9__0_ input178/X vssd1 vssd1 vccd1 vccd1 S4END_inbuf_9__0_/X sky130_fd_sc_hd__clkbuf_2
XInst_LUT4AB_switch_matrix__051_ input19/X vssd1 vssd1 vccd1 vccd1 output272/A sky130_fd_sc_hd__clkbuf_1
XFILLER_0_59_69 vssd1 vssd1 vccd1 vccd1 sky130_fd_sc_hd__fill_2
XInst_LUT4AB_ConfigMem_Inst_Frame8_bit19 input60/X input100/X vssd1 vssd1 vccd1 vccd1
+ Inst_LUT4AB_ConfigMem_Inst_Frame8_bit19/Q Inst_LUT4AB_ConfigMem_Inst_Frame8_bit19/Q_N
+ sky130_fd_sc_hd__dlxbp_1
XFILLER_0_75_24 vssd1 vssd1 vccd1 vccd1 sky130_fd_sc_hd__fill_2
XANTENNA_Inst_LUT4AB_switch_matrix_inst_cus_mux41_buf_J2END_AB_BEG3_A2 input158/X
+ vssd1 vssd1 vccd1 vccd1 sky130_fd_sc_hd__diode_2
XFILLER_0_75_57 vssd1 vssd1 vccd1 vccd1 sky130_fd_sc_hd__fill_2
XANTENNA_Inst_LUT4AB_switch_matrix_inst_cus_mux161_buf_W6BEG1_cus_mux41_buf_inst0_A0
+ input4/X vssd1 vssd1 vccd1 vccd1 sky130_fd_sc_hd__diode_2
XFILLER_0_74_456 vssd1 vssd1 vccd1 vccd1 sky130_ef_sc_hd__decap_12
XFILLER_0_46_136 vssd1 vssd1 vccd1 vccd1 sky130_fd_sc_hd__fill_2
XFILLER_0_61_128 vssd1 vssd1 vccd1 vccd1 sky130_fd_sc_hd__fill_2
XANTENNA_Inst_LUT4AB_ConfigMem_Inst_Frame14_bit14_GATE input87/X vssd1 vssd1 vccd1
+ vccd1 sky130_fd_sc_hd__diode_2
XFILLER_0_27_383 vssd1 vssd1 vccd1 vccd1 sky130_fd_sc_hd__fill_2
XFILLER_0_6_299 vssd1 vssd1 vccd1 vccd1 sky130_fd_sc_hd__fill_2
XANTENNA_Inst_LUT4AB_ConfigMem_Inst_Frame17_bit23_GATE input90/X vssd1 vssd1 vccd1
+ vccd1 sky130_fd_sc_hd__diode_2
XANTENNA_Inst_LUT4AB_ConfigMem_Inst_Frame7_bit0_D input50/X vssd1 vssd1 vccd1 vccd1
+ sky130_fd_sc_hd__diode_2
XFILLER_0_2_461 vssd1 vssd1 vccd1 vccd1 sky130_fd_sc_hd__fill_2
Xoutput286 output286/A vssd1 vssd1 vccd1 vccd1 E6BEG[9] sky130_fd_sc_hd__clkbuf_4
XFILLER_0_10_261 vssd1 vssd1 vccd1 vccd1 sky130_fd_sc_hd__fill_2
Xoutput264 output264/A vssd1 vssd1 vccd1 vccd1 E2BEG[5] sky130_fd_sc_hd__clkbuf_4
Xoutput275 output275/A vssd1 vssd1 vccd1 vccd1 E6BEG[0] sky130_fd_sc_hd__buf_2
XFILLER_0_10_294 vssd1 vssd1 vccd1 vccd1 sky130_fd_sc_hd__fill_2
Xoutput297 output297/A vssd1 vssd1 vccd1 vccd1 EE4BEG[4] sky130_fd_sc_hd__buf_2
XInst_LUT4AB_ConfigMem_Inst_Frame11_bit18 input59/X input84/X vssd1 vssd1 vccd1 vccd1
+ Inst_LUT4AB_ConfigMem_Inst_Frame11_bit18/Q Inst_LUT4AB_ConfigMem_Inst_Frame11_bit18/Q_N
+ sky130_fd_sc_hd__dlxbp_1
XANTENNA_Inst_LUT4AB_switch_matrix_inst_cus_mux41_buf_S0_A0 Inst_LUT4AB_switch_matrix__069_/A
+ vssd1 vssd1 vccd1 vccd1 sky130_fd_sc_hd__diode_2
XANTENNA_Inst_LUT4AB_switch_matrix_inst_cus_mux41_buf_S4BEG2_A0 input158/X vssd1 vssd1
+ vccd1 vccd1 sky130_fd_sc_hd__diode_2
XInst_LUT4AB_ConfigMem_Inst_Frame11_bit29 input71/X input84/X vssd1 vssd1 vccd1 vccd1
+ Inst_LUT4AB_ConfigMem_Inst_Frame11_bit29/Q Inst_LUT4AB_ConfigMem_Inst_Frame11_bit29/Q_N
+ sky130_fd_sc_hd__dlxbp_1
XANTENNA_Inst_LUT4AB_switch_matrix_inst_cus_mux41_buf_J2MID_CDa_BEG3_A2 input218/X
+ vssd1 vssd1 vccd1 vccd1 sky130_fd_sc_hd__diode_2
XFILLER_0_65_412 vssd1 vssd1 vccd1 vccd1 sky130_fd_sc_hd__fill_2
XFILLER_0_37_147 vssd1 vssd1 vccd1 vccd1 sky130_fd_sc_hd__fill_2
XFILLER_0_52_117 vssd1 vssd1 vccd1 vccd1 sky130_fd_sc_hd__fill_2
XFILLER_0_33_320 vssd1 vssd1 vccd1 vccd1 sky130_fd_sc_hd__fill_2
XANTENNA_Inst_LUT4AB_ConfigMem_Inst_Frame8_bit26_D input68/X vssd1 vssd1 vccd1 vccd1
+ sky130_fd_sc_hd__diode_2
XFILLER_0_33_397 vssd1 vssd1 vccd1 vccd1 sky130_fd_sc_hd__fill_2
XANTENNA_Inst_LUT4AB_ConfigMem_Inst_Frame8_bit4_D input76/X vssd1 vssd1 vccd1 vccd1
+ sky130_fd_sc_hd__diode_2
XANTENNA_Inst_LUT4AB_ConfigMem_Inst_Frame3_bit21_D input63/X vssd1 vssd1 vccd1 vccd1
+ sky130_fd_sc_hd__diode_2
XFILLER_0_29_17 vssd1 vssd1 vccd1 vccd1 sky130_fd_sc_hd__fill_1
XFILLER_0_29_39 vssd1 vssd1 vccd1 vccd1 sky130_fd_sc_hd__fill_2
XANTENNA_Inst_LUT4AB_switch_matrix_inst_cus_mux161_buf_JN2BEG1_cus_mux41_buf_inst0_A3
+ input8/X vssd1 vssd1 vccd1 vccd1 sky130_fd_sc_hd__diode_2
XInst_LUT4AB_ConfigMem_Inst_Frame4_bit14 input55/X input96/X vssd1 vssd1 vccd1 vccd1
+ Inst_LUT4AB_ConfigMem_Inst_Frame4_bit14/Q Inst_LUT4AB_ConfigMem_Inst_Frame4_bit14/Q_N
+ sky130_fd_sc_hd__dlxbp_1
XInst_LUT4AB_ConfigMem_Inst_Frame4_bit25 input67/X input96/X vssd1 vssd1 vccd1 vccd1
+ Inst_LUT4AB_ConfigMem_Inst_Frame4_bit25/Q Inst_LUT4AB_ConfigMem_Inst_Frame4_bit25/Q_N
+ sky130_fd_sc_hd__dlxbp_1
XANTENNA_Inst_LUT4AB_ConfigMem_Inst_Frame19_bit19_GATE input92/X vssd1 vssd1 vccd1
+ vccd1 sky130_fd_sc_hd__diode_2
XFILLER_0_45_49 vssd1 vssd1 vccd1 vccd1 sky130_fd_sc_hd__decap_4
XANTENNA_Inst_LUT4AB_ConfigMem_Inst_Frame16_bit7_GATE input89/X vssd1 vssd1 vccd1
+ vccd1 sky130_fd_sc_hd__diode_2
XFILLER_0_0_29 vssd1 vssd1 vccd1 vccd1 sky130_fd_sc_hd__decap_3
XFILLER_0_0_18 vssd1 vssd1 vccd1 vccd1 sky130_fd_sc_hd__fill_2
XFILLER_0_28_103 vssd1 vssd1 vccd1 vccd1 sky130_fd_sc_hd__fill_2
XANTENNA_Inst_LUT4AB_ConfigMem_Inst_Frame11_bit28_GATE input84/X vssd1 vssd1 vccd1
+ vccd1 sky130_fd_sc_hd__diode_2
XFILLER_0_56_445 vssd1 vssd1 vccd1 vccd1 sky130_fd_sc_hd__fill_2
XFILLER_0_28_147 vssd1 vssd1 vccd1 vccd1 sky130_fd_sc_hd__fill_1
XInst_LUT4AB_switch_matrix_inst_cus_mux161_buf_JN2BEG1_cus_mux41_buf_inst1 input22/X
+ input160/X input212/X input226/X Inst_LUT4AB_ConfigMem_Inst_Frame5_bit4/Q Inst_LUT4AB_ConfigMem_Inst_Frame4_bit7/Q
+ vssd1 vssd1 vccd1 vccd1 Inst_LUT4AB_switch_matrix_inst_cus_mux161_buf_JN2BEG1_cus_mux41_buf_inst1/X
+ sky130_fd_sc_hd__mux4_1
XFILLER_0_71_426 vssd1 vssd1 vccd1 vccd1 sky130_fd_sc_hd__fill_2
XFILLER_0_43_128 vssd1 vssd1 vccd1 vccd1 sky130_fd_sc_hd__fill_2
XANTENNA_Inst_LUT4AB_ConfigMem_Inst_Frame9_bit8_D input80/X vssd1 vssd1 vccd1 vccd1
+ sky130_fd_sc_hd__diode_2
XFILLER_0_24_342 vssd1 vssd1 vccd1 vccd1 sky130_fd_sc_hd__fill_1
XANTENNA_Inst_LUT4AB_ConfigMem_Inst_Frame10_bit2_GATE input83/X vssd1 vssd1 vccd1
+ vccd1 sky130_fd_sc_hd__diode_2
XInst_LUT4AB_switch_matrix__103_ ANTENNA_4/DIODE vssd1 vssd1 vccd1 vccd1 output470/A
+ sky130_fd_sc_hd__clkbuf_1
XANTENNA_Inst_LUT4AB_ConfigMem_Inst_Frame6_bit8_GATE input98/X vssd1 vssd1 vccd1 vccd1
+ sky130_fd_sc_hd__diode_2
XInst_LUT4AB_switch_matrix__034_ Inst_LUT4AB_switch_matrix__034_/A vssd1 vssd1 vccd1
+ vccd1 Inst_LUT4AB_switch_matrix__034_/X sky130_fd_sc_hd__clkbuf_1
XANTENNA_Inst_LUT4AB_ConfigMem_Inst_Frame10_bit5_D input77/X vssd1 vssd1 vccd1 vccd1
+ sky130_fd_sc_hd__diode_2
XFILLER_0_19_72 vssd1 vssd1 vccd1 vccd1 sky130_fd_sc_hd__fill_2
XFILLER_0_43_7 vssd1 vssd1 vccd1 vccd1 sky130_fd_sc_hd__fill_1
XANTENNA_Inst_LUT4AB_ConfigMem_Inst_Frame7_bit11_GATE input99/X vssd1 vssd1 vccd1
+ vccd1 sky130_fd_sc_hd__diode_2
XANTENNA_Inst_LUT4AB_ConfigMem_Inst_Frame0_bit3_GATE input82/X vssd1 vssd1 vccd1 vccd1
+ sky130_fd_sc_hd__diode_2
XANTENNA_Inst_LUT4AB_switch_matrix_inst_cus_mux41_buf_LB_I1_A2 Inst_LUT4AB_switch_matrix_inst_cus_mux41_buf_LB_I1/A2
+ vssd1 vssd1 vccd1 vccd1 sky130_fd_sc_hd__diode_2
XFILLER_0_47_412 vssd1 vssd1 vccd1 vccd1 sky130_fd_sc_hd__decap_3
XANTENNA_Inst_LUT4AB_switch_matrix_inst_cus_mux161_buf_JW2BEG1_cus_mux41_buf_inst0_A1
+ input108/X vssd1 vssd1 vccd1 vccd1 sky130_fd_sc_hd__diode_2
XFILLER_0_34_106 vssd1 vssd1 vccd1 vccd1 sky130_fd_sc_hd__decap_3
XInst_LUT4AB_ConfigMem_Inst_Frame11_bit5 input77/X input84/X vssd1 vssd1 vccd1 vccd1
+ Inst_LUT4AB_ConfigMem_Inst_Frame11_bit5/Q Inst_LUT4AB_ConfigMem_Inst_Frame11_bit5/Q_N
+ sky130_fd_sc_hd__dlxbp_1
XFILLER_0_42_161 vssd1 vssd1 vccd1 vccd1 sky130_fd_sc_hd__fill_2
XFILLER_0_42_183 vssd1 vssd1 vccd1 vccd1 sky130_fd_sc_hd__fill_2
XANTENNA_Inst_LUT4AB_ConfigMem_Inst_Frame11_bit9_D input81/X vssd1 vssd1 vccd1 vccd1
+ sky130_fd_sc_hd__diode_2
XANTENNA_Inst_LUT4AB_switch_matrix_inst_cus_mux41_buf_J_l_EF_BEG2_A2 input214/X vssd1
+ vssd1 vccd1 vccd1 sky130_fd_sc_hd__diode_2
XANTENNA_Inst_LUT4AB_ConfigMem_Inst_Frame12_bit26_D input68/X vssd1 vssd1 vccd1 vccd1
+ sky130_fd_sc_hd__diode_2
XInst_LUT4AB_ConfigMem_Inst_Frame0_bit20 input62/X input82/X vssd1 vssd1 vccd1 vccd1
+ Inst_LUT4AB_ConfigMem_Inst_Frame0_bit20/Q Inst_LUT4AB_ConfigMem_Inst_Frame0_bit20/Q_N
+ sky130_fd_sc_hd__dlxbp_1
XInst_LUT4AB_ConfigMem_Inst_Frame7_bit18 input59/X input99/X vssd1 vssd1 vccd1 vccd1
+ Inst_LUT4AB_ConfigMem_Inst_Frame7_bit18/Q Inst_LUT4AB_ConfigMem_Inst_Frame7_bit18/Q_N
+ sky130_fd_sc_hd__dlxbp_1
XInst_LUT4AB_ConfigMem_Inst_Frame8_bit6 input78/X input100/X vssd1 vssd1 vccd1 vccd1
+ Inst_LUT4AB_ConfigMem_Inst_Frame8_bit6/Q Inst_LUT4AB_ConfigMem_Inst_Frame8_bit6/Q_N
+ sky130_fd_sc_hd__dlxbp_1
XInst_LUT4AB_ConfigMem_Inst_Frame7_bit29 input71/X input99/X vssd1 vssd1 vccd1 vccd1
+ Inst_LUT4AB_ConfigMem_Inst_Frame7_bit29/Q Inst_LUT4AB_ConfigMem_Inst_Frame7_bit29/Q_N
+ sky130_fd_sc_hd__dlxbp_1
XANTENNA_Inst_LUT4AB_ConfigMem_Inst_Frame7_bit14_D input55/X vssd1 vssd1 vccd1 vccd1
+ sky130_fd_sc_hd__diode_2
XFILLER_0_65_275 vssd1 vssd1 vccd1 vccd1 sky130_fd_sc_hd__fill_2
XFILLER_0_65_253 vssd1 vssd1 vccd1 vccd1 sky130_fd_sc_hd__fill_2
XFILLER_0_61_470 vssd1 vssd1 vccd1 vccd1 sky130_fd_sc_hd__fill_2
XFILLER_0_21_345 vssd1 vssd1 vccd1 vccd1 sky130_fd_sc_hd__fill_2
XANTENNA_Inst_LUT4AB_ConfigMem_Inst_Frame1_bit16_GATE input93/X vssd1 vssd1 vccd1
+ vccd1 sky130_fd_sc_hd__diode_2
XANTENNA_Inst_LUT4AB_ConfigMem_Inst_Frame4_bit25_GATE input96/X vssd1 vssd1 vccd1
+ vccd1 sky130_fd_sc_hd__diode_2
XFILLER_0_21_389 vssd1 vssd1 vccd1 vccd1 sky130_fd_sc_hd__decap_3
XInst_LUT4AB_switch_matrix_inst_cus_mux161_buf_JE2BEG3_cus_mux41_buf_inst0 input104/X
+ input110/X input122/X input10/X Inst_LUT4AB_ConfigMem_Inst_Frame2_bit13/Q Inst_LUT4AB_ConfigMem_Inst_Frame3_bit16/Q
+ vssd1 vssd1 vccd1 vccd1 Inst_LUT4AB_switch_matrix_inst_cus_mux161_buf_JE2BEG3_cus_mux41_buf_inst0/X
+ sky130_fd_sc_hd__mux4_1
XTAP_507 vssd1 vccd1 sky130_fd_sc_hd__tapvpwrvgnd_1
XTAP_518 vssd1 vccd1 sky130_fd_sc_hd__tapvpwrvgnd_1
XTAP_529 vssd1 vccd1 sky130_fd_sc_hd__tapvpwrvgnd_1
XFILLER_0_56_26 vssd1 vssd1 vccd1 vccd1 sky130_fd_sc_hd__fill_2
XANTENNA_W6BEG_outbuf_8__0__A W6END_inbuf_8__0_/X vssd1 vssd1 vccd1 vccd1 sky130_fd_sc_hd__diode_2
XANTENNA_Inst_LUT4AB_switch_matrix_inst_cus_mux41_buf_J2END_AB_BEG0_A3 input216/X
+ vssd1 vssd1 vccd1 vccd1 sky130_fd_sc_hd__diode_2
Xdata_inbuf_20__0_ input62/X vssd1 vssd1 vccd1 vccd1 data_inbuf_20__0_/X sky130_fd_sc_hd__clkbuf_1
XFILLER_0_56_220 vssd1 vssd1 vccd1 vccd1 sky130_fd_sc_hd__fill_2
XFILLER_0_29_445 vssd1 vssd1 vccd1 vccd1 sky130_fd_sc_hd__decap_3
XFILLER_0_56_275 vssd1 vssd1 vccd1 vccd1 sky130_fd_sc_hd__fill_2
XFILLER_0_56_253 vssd1 vssd1 vccd1 vccd1 sky130_fd_sc_hd__fill_2
XFILLER_0_56_242 vssd1 vssd1 vccd1 vccd1 sky130_fd_sc_hd__decap_4
XFILLER_0_8_339 vssd1 vssd1 vccd1 vccd1 sky130_fd_sc_hd__fill_2
XInst_LUT4AB_ConfigMem_Inst_Frame10_bit17 input58/X input83/X vssd1 vssd1 vccd1 vccd1
+ Inst_LUT4AB_ConfigMem_Inst_Frame10_bit17/Q Inst_LUT4AB_ConfigMem_Inst_Frame10_bit17/Q_N
+ sky130_fd_sc_hd__dlxbp_1
XInst_LUT4AB_ConfigMem_Inst_Frame10_bit28 input70/X input83/X vssd1 vssd1 vccd1 vccd1
+ Inst_LUT4AB_ConfigMem_Inst_Frame10_bit28/Q Inst_LUT4AB_ConfigMem_Inst_Frame10_bit28/Q_N
+ sky130_fd_sc_hd__dlxbp_1
XANTENNA_Inst_LG_LUT4c_frame_config_dffesr__12__A1 Inst_LG_LUT4c_frame_config_dffesr__09_/A
+ vssd1 vssd1 vccd1 vccd1 sky130_fd_sc_hd__diode_2
XFILLER_0_12_389 vssd1 vssd1 vccd1 vccd1 sky130_fd_sc_hd__fill_2
XANTENNA_Inst_LUT4AB_switch_matrix_inst_cus_mux41_buf_J2MID_EFb_BEG1_A3 input221/X
+ vssd1 vssd1 vccd1 vccd1 sky130_fd_sc_hd__diode_2
XInst_LH_LUT4c_frame_config_dffesr__08_ Inst_LH_LUT4c_frame_config_dffesr__08_/A vssd1
+ vssd1 vccd1 vccd1 Inst_LH_LUT4c_frame_config_dffesr__08_/Y sky130_fd_sc_hd__inv_2
XANTENNA_Inst_LUT4AB_switch_matrix_inst_cus_mux41_buf_J2MID_CDa_BEG0_A3 Inst_LUT4AB_switch_matrix__069_/A
+ vssd1 vssd1 vccd1 vccd1 sky130_fd_sc_hd__diode_2
XFILLER_0_1_50 vssd1 vssd1 vccd1 vccd1 sky130_fd_sc_hd__fill_2
XANTENNA_Inst_LUT4AB_switch_matrix_inst_cus_mux161_buf_JE2BEG6_cus_mux41_buf_inst2_A2
+ Inst_LUT4AB_switch_matrix__034_/A vssd1 vssd1 vccd1 vccd1 sky130_fd_sc_hd__diode_2
XFILLER_0_62_80 vssd1 vssd1 vccd1 vccd1 sky130_fd_sc_hd__fill_2
Xdata_inbuf_11__0_ input52/X vssd1 vssd1 vccd1 vccd1 data_inbuf_11__0_/X sky130_fd_sc_hd__clkbuf_1
XInst_LUT4AB_ConfigMem_Inst_Frame3_bit13 input54/X input95/X vssd1 vssd1 vccd1 vccd1
+ Inst_LUT4AB_ConfigMem_Inst_Frame3_bit13/Q Inst_LUT4AB_ConfigMem_Inst_Frame3_bit13/Q_N
+ sky130_fd_sc_hd__dlxbp_1
XANTENNA_Inst_LUT4AB_ConfigMem_Inst_Frame16_bit19_D input60/X vssd1 vssd1 vccd1 vccd1
+ sky130_fd_sc_hd__diode_2
XFILLER_0_62_245 vssd1 vssd1 vccd1 vccd1 sky130_fd_sc_hd__fill_2
XANTENNA_Inst_LUT4AB_switch_matrix_inst_cus_mux41_buf_J2MID_CDb_BEG1_A0 input117/X
+ vssd1 vssd1 vccd1 vccd1 sky130_fd_sc_hd__diode_2
XInst_LUT4AB_ConfigMem_Inst_Frame3_bit24 input66/X input95/X vssd1 vssd1 vccd1 vccd1
+ Inst_LUT4AB_ConfigMem_Inst_Frame3_bit24/Q Inst_LUT4AB_ConfigMem_Inst_Frame3_bit24/Q_N
+ sky130_fd_sc_hd__dlxbp_1
XFILLER_0_50_407 vssd1 vssd1 vccd1 vccd1 sky130_fd_sc_hd__decap_3