* NGSPICE file created from N_term_RAM_IO.ext - technology: sky130A

* Black-box entry subcircuit for sky130_fd_sc_hd__decap_3 abstract view
.subckt sky130_fd_sc_hd__decap_3 VGND VNB VPB VPWR
.ends

* Black-box entry subcircuit for sky130_ef_sc_hd__decap_12 abstract view
.subckt sky130_ef_sc_hd__decap_12 VGND VNB VPB VPWR
.ends

* Black-box entry subcircuit for sky130_fd_sc_hd__fill_1 abstract view
.subckt sky130_fd_sc_hd__fill_1 VGND VNB VPB VPWR
.ends

* Black-box entry subcircuit for sky130_fd_sc_hd__decap_6 abstract view
.subckt sky130_fd_sc_hd__decap_6 VGND VNB VPB VPWR
.ends

* Black-box entry subcircuit for sky130_fd_sc_hd__buf_2 abstract view
.subckt sky130_fd_sc_hd__buf_2 A VGND VNB VPB VPWR X
.ends

* Black-box entry subcircuit for sky130_fd_sc_hd__clkbuf_4 abstract view
.subckt sky130_fd_sc_hd__clkbuf_4 A VGND VNB VPB VPWR X
.ends

* Black-box entry subcircuit for sky130_fd_sc_hd__clkbuf_1 abstract view
.subckt sky130_fd_sc_hd__clkbuf_1 A VGND VNB VPB VPWR X
.ends

* Black-box entry subcircuit for sky130_fd_sc_hd__decap_4 abstract view
.subckt sky130_fd_sc_hd__decap_4 VGND VNB VPB VPWR
.ends

* Black-box entry subcircuit for sky130_fd_sc_hd__decap_8 abstract view
.subckt sky130_fd_sc_hd__decap_8 VGND VNB VPB VPWR
.ends

* Black-box entry subcircuit for sky130_fd_sc_hd__fill_2 abstract view
.subckt sky130_fd_sc_hd__fill_2 VGND VNB VPB VPWR
.ends

* Black-box entry subcircuit for sky130_fd_sc_hd__buf_1 abstract view
.subckt sky130_fd_sc_hd__buf_1 A VGND VNB VPB VPWR X
.ends

* Black-box entry subcircuit for sky130_fd_sc_hd__tapvpwrvgnd_1 abstract view
.subckt sky130_fd_sc_hd__tapvpwrvgnd_1 VGND VPWR
.ends

* Black-box entry subcircuit for sky130_fd_sc_hd__clkbuf_2 abstract view
.subckt sky130_fd_sc_hd__clkbuf_2 A VGND VNB VPB VPWR X
.ends

.subckt N_term_RAM_IO FrameStrobe[0] FrameStrobe[10] FrameStrobe[11] FrameStrobe[12]
+ FrameStrobe[13] FrameStrobe[14] FrameStrobe[15] FrameStrobe[16] FrameStrobe[17]
+ FrameStrobe[18] FrameStrobe[19] FrameStrobe[1] FrameStrobe[2] FrameStrobe[3] FrameStrobe[4]
+ FrameStrobe[5] FrameStrobe[6] FrameStrobe[7] FrameStrobe[8] FrameStrobe[9] FrameStrobe_O[0]
+ FrameStrobe_O[10] FrameStrobe_O[11] FrameStrobe_O[12] FrameStrobe_O[13] FrameStrobe_O[14]
+ FrameStrobe_O[15] FrameStrobe_O[16] FrameStrobe_O[17] FrameStrobe_O[18] FrameStrobe_O[19]
+ FrameStrobe_O[1] FrameStrobe_O[2] FrameStrobe_O[3] FrameStrobe_O[4] FrameStrobe_O[5]
+ FrameStrobe_O[6] FrameStrobe_O[7] FrameStrobe_O[8] FrameStrobe_O[9] N1END[0] N1END[1]
+ N1END[2] N1END[3] N2END[0] N2END[1] N2END[2] N2END[3] N2END[4] N2END[5] N2END[6]
+ N2END[7] N2MID[0] N2MID[1] N2MID[2] N2MID[3] N2MID[4] N2MID[5] N2MID[6] N2MID[7]
+ N4END[0] N4END[10] N4END[11] N4END[12] N4END[13] N4END[14] N4END[15] N4END[1] N4END[2]
+ N4END[3] N4END[4] N4END[5] N4END[6] N4END[7] N4END[8] N4END[9] S1BEG[0] S1BEG[1]
+ S1BEG[2] S1BEG[3] S2BEG[0] S2BEG[1] S2BEG[2] S2BEG[3] S2BEG[4] S2BEG[5] S2BEG[6]
+ S2BEG[7] S2BEGb[0] S2BEGb[1] S2BEGb[2] S2BEGb[3] S2BEGb[4] S2BEGb[5] S2BEGb[6] S2BEGb[7]
+ S4BEG[0] S4BEG[10] S4BEG[11] S4BEG[12] S4BEG[13] S4BEG[14] S4BEG[15] S4BEG[1] S4BEG[2]
+ S4BEG[3] S4BEG[4] S4BEG[5] S4BEG[6] S4BEG[7] S4BEG[8] S4BEG[9] UserCLK UserCLKo
+ VGND VPWR
XFILLER_0_4_193 VGND VGND VPWR VPWR sky130_fd_sc_hd__decap_3
XFILLER_0_7_81 VGND VGND VPWR VPWR sky130_ef_sc_hd__decap_12
XFILLER_0_3_39 VGND VGND VPWR VPWR sky130_ef_sc_hd__decap_12
XFILLER_0_1_130 VGND VGND VPWR VPWR sky130_fd_sc_hd__fill_1
XFILLER_0_11_217 VGND VGND VPWR VPWR sky130_fd_sc_hd__decap_6
XFILLER_0_6_233 VGND VGND VPWR VPWR sky130_ef_sc_hd__decap_12
XFILLER_0_10_85 VGND VGND VPWR VPWR sky130_ef_sc_hd__decap_12
XFILLER_0_10_41 VGND VGND VPWR VPWR sky130_ef_sc_hd__decap_12
XFILLER_0_9_27 VGND VGND VPWR VPWR sky130_ef_sc_hd__decap_12
XFILLER_0_3_225 VGND VGND VPWR VPWR sky130_fd_sc_hd__decap_6
XFILLER_0_12_197 VGND VGND VPWR VPWR sky130_ef_sc_hd__decap_12
XFILLER_0_12_153 VGND VGND VPWR VPWR sky130_ef_sc_hd__decap_12
Xoutput64 net64 VGND VGND VPWR VPWR FrameStrobe_O[15] sky130_fd_sc_hd__buf_2
Xoutput75 net75 VGND VGND VPWR VPWR FrameStrobe_O[7] sky130_fd_sc_hd__buf_2
Xoutput97 net97 VGND VGND VPWR VPWR S2BEGb[7] sky130_fd_sc_hd__buf_2
Xoutput86 net86 VGND VGND VPWR VPWR S2BEG[4] sky130_fd_sc_hd__clkbuf_4
Xstrobe_outbuf_14__0_ FrameStrobe_O_i\[14\] VGND VGND VPWR VPWR net63 sky130_fd_sc_hd__clkbuf_1
XFILLER_0_7_93 VGND VGND VPWR VPWR sky130_ef_sc_hd__decap_12
XFILLER_0_13_85 VGND VGND VPWR VPWR sky130_fd_sc_hd__decap_4
XFILLER_0_13_41 VGND VGND VPWR VPWR sky130_fd_sc_hd__decap_8
XFILLER_0_1_153 VGND VGND VPWR VPWR sky130_fd_sc_hd__fill_2
XFILLER_0_10_251 VGND VGND VPWR VPWR sky130_fd_sc_hd__fill_1
XFILLER_0_6_245 VGND VGND VPWR VPWR sky130_fd_sc_hd__decap_6
XFILLER_0_4_83 VGND VGND VPWR VPWR sky130_fd_sc_hd__fill_1
XFILLER_0_4_94 VGND VGND VPWR VPWR sky130_fd_sc_hd__decap_8
XFILLER_0_9_39 VGND VGND VPWR VPWR sky130_ef_sc_hd__decap_12
Xstrobe_inbuf_11__0_ net3 VGND VGND VPWR VPWR FrameStrobe_O_i\[11\] sky130_fd_sc_hd__clkbuf_1
XFILLER_0_10_97 VGND VGND VPWR VPWR sky130_ef_sc_hd__decap_12
XFILLER_0_10_53 VGND VGND VPWR VPWR sky130_ef_sc_hd__decap_12
Xstrobe_outbuf_9__0_ FrameStrobe_O_i\[9\] VGND VGND VPWR VPWR net77 sky130_fd_sc_hd__clkbuf_1
XFILLER_0_13_9 VGND VGND VPWR VPWR sky130_fd_sc_hd__fill_2
XFILLER_0_6_29 VGND VGND VPWR VPWR sky130_ef_sc_hd__decap_12
XFILLER_0_12_165 VGND VGND VPWR VPWR sky130_fd_sc_hd__decap_3
XFILLER_0_12_121 VGND VGND VPWR VPWR sky130_ef_sc_hd__decap_12
Xoutput65 net65 VGND VGND VPWR VPWR FrameStrobe_O[16] sky130_fd_sc_hd__buf_2
Xoutput76 net76 VGND VGND VPWR VPWR FrameStrobe_O[8] sky130_fd_sc_hd__buf_2
XFILLER_0_7_181 VGND VGND VPWR VPWR sky130_ef_sc_hd__decap_12
Xoutput87 net87 VGND VGND VPWR VPWR S2BEG[5] sky130_fd_sc_hd__clkbuf_4
Xoutput98 net98 VGND VGND VPWR VPWR S4BEG[0] sky130_fd_sc_hd__clkbuf_4
XFILLER_0_5_118 VGND VGND VPWR VPWR sky130_fd_sc_hd__decap_8
XFILLER_0_13_75 VGND VGND VPWR VPWR sky130_fd_sc_hd__fill_1
XFILLER_0_10_65 VGND VGND VPWR VPWR sky130_ef_sc_hd__decap_12
XFILLER_0_3_205 VGND VGND VPWR VPWR sky130_ef_sc_hd__decap_12
XFILLER_0_1_74 VGND VGND VPWR VPWR sky130_fd_sc_hd__fill_2
XFILLER_0_1_41 VGND VGND VPWR VPWR sky130_fd_sc_hd__decap_3
XFILLER_0_12_133 VGND VGND VPWR VPWR sky130_fd_sc_hd__decap_6
Xoutput66 net66 VGND VGND VPWR VPWR FrameStrobe_O[17] sky130_fd_sc_hd__buf_2
Xoutput77 net77 VGND VGND VPWR VPWR FrameStrobe_O[9] sky130_fd_sc_hd__buf_2
XFILLER_0_9_3 VGND VGND VPWR VPWR sky130_ef_sc_hd__decap_12
XFILLER_0_7_193 VGND VGND VPWR VPWR sky130_ef_sc_hd__decap_12
Xoutput88 net88 VGND VGND VPWR VPWR S2BEG[6] sky130_fd_sc_hd__clkbuf_4
Xoutput99 net99 VGND VGND VPWR VPWR S4BEG[10] sky130_fd_sc_hd__clkbuf_4
XFILLER_0_7_51 VGND VGND VPWR VPWR sky130_fd_sc_hd__decap_4
XFILLER_0_1_122 VGND VGND VPWR VPWR sky130_fd_sc_hd__fill_1
XFILLER_0_4_41 VGND VGND VPWR VPWR sky130_ef_sc_hd__decap_12
XFILLER_0_4_85 VGND VGND VPWR VPWR sky130_fd_sc_hd__decap_6
XFILLER_0_10_77 VGND VGND VPWR VPWR sky130_fd_sc_hd__decap_6
XFILLER_0_3_217 VGND VGND VPWR VPWR sky130_fd_sc_hd__decap_6
Xstrobe_inbuf_2__0_ net13 VGND VGND VPWR VPWR FrameStrobe_O_i\[2\] sky130_fd_sc_hd__clkbuf_1
XFILLER_0_8_139 VGND VGND VPWR VPWR sky130_fd_sc_hd__fill_1
Xstrobe_outbuf_17__0_ FrameStrobe_O_i\[17\] VGND VGND VPWR VPWR net66 sky130_fd_sc_hd__clkbuf_1
Xoutput67 net67 VGND VGND VPWR VPWR FrameStrobe_O[18] sky130_fd_sc_hd__clkbuf_4
XFILLER_0_7_161 VGND VGND VPWR VPWR sky130_fd_sc_hd__decap_6
Xoutput78 net78 VGND VGND VPWR VPWR S1BEG[0] sky130_fd_sc_hd__clkbuf_4
Xoutput89 net89 VGND VGND VPWR VPWR S2BEG[7] sky130_fd_sc_hd__clkbuf_4
XFILLER_0_4_153 VGND VGND VPWR VPWR sky130_fd_sc_hd__fill_1
XFILLER_0_4_197 VGND VGND VPWR VPWR sky130_fd_sc_hd__decap_8
XInst_N_term_RAM_IO_switch_matrix__19_ net25 VGND VGND VPWR VPWR net97 sky130_fd_sc_hd__clkbuf_1
XFILLER_0_9_223 VGND VGND VPWR VPWR sky130_fd_sc_hd__fill_1
XFILLER_0_1_167 VGND VGND VPWR VPWR sky130_fd_sc_hd__fill_1
XFILLER_0_13_251 VGND VGND VPWR VPWR sky130_fd_sc_hd__fill_1
Xstrobe_inbuf_14__0_ net6 VGND VGND VPWR VPWR FrameStrobe_O_i\[14\] sky130_fd_sc_hd__clkbuf_1
XFILLER_0_10_221 VGND VGND VPWR VPWR sky130_ef_sc_hd__decap_12
XFILLER_0_4_53 VGND VGND VPWR VPWR sky130_ef_sc_hd__decap_12
XFILLER_0_2_251 VGND VGND VPWR VPWR sky130_fd_sc_hd__fill_1
Xoutput68 net68 VGND VGND VPWR VPWR FrameStrobe_O[19] sky130_fd_sc_hd__clkbuf_4
Xoutput79 net79 VGND VGND VPWR VPWR S1BEG[1] sky130_fd_sc_hd__buf_2
XInst_N_term_RAM_IO_switch_matrix__35_ net53 VGND VGND VPWR VPWR net113 sky130_fd_sc_hd__buf_1
XFILLER_0_4_132 VGND VGND VPWR VPWR sky130_fd_sc_hd__decap_8
XInst_N_term_RAM_IO_switch_matrix__18_ net26 VGND VGND VPWR VPWR net96 sky130_fd_sc_hd__clkbuf_1
XFILLER_0_13_23 VGND VGND VPWR VPWR sky130_fd_sc_hd__fill_1
XFILLER_0_10_233 VGND VGND VPWR VPWR sky130_ef_sc_hd__decap_12
XFILLER_0_4_65 VGND VGND VPWR VPWR sky130_ef_sc_hd__decap_12
XFILLER_0_1_66 VGND VGND VPWR VPWR sky130_fd_sc_hd__fill_2
Xoutput69 net69 VGND VGND VPWR VPWR FrameStrobe_O[1] sky130_fd_sc_hd__buf_2
Xoutput58 net58 VGND VGND VPWR VPWR FrameStrobe_O[0] sky130_fd_sc_hd__buf_2
XInst_N_term_RAM_IO_switch_matrix__34_ net54 VGND VGND VPWR VPWR net112 sky130_fd_sc_hd__clkbuf_1
XPHY_0 VGND VGND VPWR VPWR sky130_fd_sc_hd__decap_3
XFILLER_0_7_3 VGND VGND VPWR VPWR sky130_ef_sc_hd__decap_12
XFILLER_0_13_57 VGND VGND VPWR VPWR sky130_fd_sc_hd__decap_6
XInst_N_term_RAM_IO_switch_matrix__17_ net27 VGND VGND VPWR VPWR net95 sky130_fd_sc_hd__clkbuf_1
XFILLER_0_13_231 VGND VGND VPWR VPWR sky130_fd_sc_hd__fill_1
XFILLER_0_9_225 VGND VGND VPWR VPWR sky130_ef_sc_hd__decap_12
XFILLER_0_10_245 VGND VGND VPWR VPWR sky130_fd_sc_hd__decap_6
XFILLER_0_4_77 VGND VGND VPWR VPWR sky130_fd_sc_hd__decap_6
Xstrobe_inbuf_5__0_ net16 VGND VGND VPWR VPWR FrameStrobe_O_i\[5\] sky130_fd_sc_hd__clkbuf_1
XFILLER_0_5_250 VGND VGND VPWR VPWR sky130_fd_sc_hd__fill_2
XFILLER_0_2_220 VGND VGND VPWR VPWR sky130_fd_sc_hd__decap_6
XFILLER_0_8_109 VGND VGND VPWR VPWR sky130_ef_sc_hd__decap_12
Xoutput59 net59 VGND VGND VPWR VPWR FrameStrobe_O[10] sky130_fd_sc_hd__buf_2
XFILLER_0_11_181 VGND VGND VPWR VPWR sky130_ef_sc_hd__decap_12
XInst_N_term_RAM_IO_switch_matrix__33_ net55 VGND VGND VPWR VPWR net111 sky130_fd_sc_hd__clkbuf_1
Xstrobe_outbuf_2__0_ FrameStrobe_O_i\[2\] VGND VGND VPWR VPWR net70 sky130_fd_sc_hd__buf_1
XPHY_1 VGND VGND VPWR VPWR sky130_fd_sc_hd__decap_3
XFILLER_0_7_55 VGND VGND VPWR VPWR sky130_fd_sc_hd__fill_1
XFILLER_0_13_69 VGND VGND VPWR VPWR sky130_fd_sc_hd__decap_6
XFILLER_0_1_104 VGND VGND VPWR VPWR sky130_fd_sc_hd__fill_2
XInst_N_term_RAM_IO_switch_matrix__16_ net28 VGND VGND VPWR VPWR net94 sky130_fd_sc_hd__clkbuf_1
Xstrobe_inbuf_17__0_ net9 VGND VGND VPWR VPWR FrameStrobe_O_i\[17\] sky130_fd_sc_hd__clkbuf_1
XFILLER_0_13_210 VGND VGND VPWR VPWR sky130_fd_sc_hd__decap_8
XFILLER_0_9_237 VGND VGND VPWR VPWR sky130_ef_sc_hd__decap_12
XFILLER_0_10_15 VGND VGND VPWR VPWR sky130_ef_sc_hd__decap_12
XFILLER_0_1_79 VGND VGND VPWR VPWR sky130_fd_sc_hd__fill_1
XFILLER_0_1_57 VGND VGND VPWR VPWR sky130_fd_sc_hd__decap_3
XFILLER_0_11_193 VGND VGND VPWR VPWR sky130_ef_sc_hd__decap_12
XInst_N_term_RAM_IO_switch_matrix__32_ net56 VGND VGND VPWR VPWR net110 sky130_fd_sc_hd__clkbuf_1
XPHY_2 VGND VGND VPWR VPWR sky130_fd_sc_hd__decap_3
XFILLER_0_4_102 VGND VGND VPWR VPWR sky130_fd_sc_hd__fill_1
XFILLER_0_4_157 VGND VGND VPWR VPWR sky130_ef_sc_hd__decap_12
XFILLER_0_13_15 VGND VGND VPWR VPWR sky130_fd_sc_hd__decap_8
XInst_N_term_RAM_IO_switch_matrix__15_ net29 VGND VGND VPWR VPWR net93 sky130_fd_sc_hd__clkbuf_1
XFILLER_0_9_249 VGND VGND VPWR VPWR sky130_fd_sc_hd__decap_3
XFILLER_0_9_205 VGND VGND VPWR VPWR sky130_ef_sc_hd__decap_12
XFILLER_0_10_27 VGND VGND VPWR VPWR sky130_fd_sc_hd__fill_1
XFILLER_0_2_200 VGND VGND VPWR VPWR sky130_fd_sc_hd__fill_1
XFILLER_0_11_81 VGND VGND VPWR VPWR sky130_ef_sc_hd__decap_12
XFILLER_0_12_139 VGND VGND VPWR VPWR sky130_fd_sc_hd__fill_1
XFILLER_0_11_161 VGND VGND VPWR VPWR sky130_fd_sc_hd__decap_6
XInst_N_term_RAM_IO_switch_matrix__31_ net42 VGND VGND VPWR VPWR net109 sky130_fd_sc_hd__clkbuf_1
XFILLER_0_7_111 VGND VGND VPWR VPWR sky130_fd_sc_hd__fill_1
XPHY_3 VGND VGND VPWR VPWR sky130_fd_sc_hd__decap_3
XFILLER_0_4_114 VGND VGND VPWR VPWR sky130_fd_sc_hd__fill_2
XFILLER_0_4_147 VGND VGND VPWR VPWR sky130_fd_sc_hd__decap_6
XFILLER_0_4_169 VGND VGND VPWR VPWR sky130_ef_sc_hd__decap_12
XFILLER_0_7_57 VGND VGND VPWR VPWR sky130_ef_sc_hd__decap_12
XFILLER_0_13_49 VGND VGND VPWR VPWR sky130_fd_sc_hd__fill_1
XInst_N_term_RAM_IO_switch_matrix__14_ net30 VGND VGND VPWR VPWR net92 sky130_fd_sc_hd__clkbuf_1
XFILLER_0_9_217 VGND VGND VPWR VPWR sky130_fd_sc_hd__decap_6
Xstrobe_outbuf_10__0_ FrameStrobe_O_i\[10\] VGND VGND VPWR VPWR net59 sky130_fd_sc_hd__clkbuf_1
XFILLER_0_13_223 VGND VGND VPWR VPWR sky130_fd_sc_hd__fill_1
XFILLER_0_6_209 VGND VGND VPWR VPWR sky130_ef_sc_hd__decap_12
Xstrobe_inbuf_8__0_ net19 VGND VGND VPWR VPWR FrameStrobe_O_i\[8\] sky130_fd_sc_hd__clkbuf_1
XFILLER_0_5_3 VGND VGND VPWR VPWR sky130_ef_sc_hd__decap_12
XFILLER_0_11_93 VGND VGND VPWR VPWR sky130_ef_sc_hd__decap_12
XFILLER_0_7_167 VGND VGND VPWR VPWR sky130_fd_sc_hd__fill_1
Xstrobe_outbuf_5__0_ FrameStrobe_O_i\[5\] VGND VGND VPWR VPWR net73 sky130_fd_sc_hd__clkbuf_1
XFILLER_0_2_80 VGND VGND VPWR VPWR sky130_fd_sc_hd__decap_4
XInst_N_term_RAM_IO_switch_matrix__30_ net43 VGND VGND VPWR VPWR net108 sky130_fd_sc_hd__clkbuf_1
XPHY_4 VGND VGND VPWR VPWR sky130_fd_sc_hd__decap_3
XFILLER_0_7_69 VGND VGND VPWR VPWR sky130_ef_sc_hd__decap_12
XInst_N_term_RAM_IO_switch_matrix__13_ net31 VGND VGND VPWR VPWR net91 sky130_fd_sc_hd__clkbuf_1
XFILLER_0_3_181 VGND VGND VPWR VPWR sky130_ef_sc_hd__decap_12
XFILLER_0_8_251 VGND VGND VPWR VPWR sky130_fd_sc_hd__fill_1
XFILLER_0_0_151 VGND VGND VPWR VPWR sky130_fd_sc_hd__fill_2
XFILLER_0_4_15 VGND VGND VPWR VPWR sky130_ef_sc_hd__decap_12
XFILLER_0_10_29 VGND VGND VPWR VPWR sky130_ef_sc_hd__decap_12
XFILLER_0_7_113 VGND VGND VPWR VPWR sky130_ef_sc_hd__decap_12
XPHY_5 VGND VGND VPWR VPWR sky130_fd_sc_hd__decap_3
XFILLER_0_4_127 VGND VGND VPWR VPWR sky130_fd_sc_hd__fill_2
XFILLER_0_7_15 VGND VGND VPWR VPWR sky130_ef_sc_hd__decap_12
XFILLER_0_3_193 VGND VGND VPWR VPWR sky130_ef_sc_hd__decap_12
XFILLER_0_13_29 VGND VGND VPWR VPWR sky130_fd_sc_hd__decap_8
XInst_N_term_RAM_IO_switch_matrix__12_ net32 VGND VGND VPWR VPWR net90 sky130_fd_sc_hd__clkbuf_1
XFILLER_0_13_236 VGND VGND VPWR VPWR sky130_fd_sc_hd__decap_3
XFILLER_0_13_225 VGND VGND VPWR VPWR sky130_fd_sc_hd__decap_6
XFILLER_0_13_203 VGND VGND VPWR VPWR sky130_fd_sc_hd__decap_3
XFILLER_0_4_27 VGND VGND VPWR VPWR sky130_fd_sc_hd__fill_1
XFILLER_0_5_81 VGND VGND VPWR VPWR sky130_fd_sc_hd__decap_8
XFILLER_0_5_92 VGND VGND VPWR VPWR sky130_fd_sc_hd__decap_8
XFILLER_0_11_51 VGND VGND VPWR VPWR sky130_fd_sc_hd__decap_4
XFILLER_0_1_17 VGND VGND VPWR VPWR sky130_ef_sc_hd__decap_12
XFILLER_0_12_109 VGND VGND VPWR VPWR sky130_ef_sc_hd__decap_12
XFILLER_0_7_169 VGND VGND VPWR VPWR sky130_ef_sc_hd__decap_12
XFILLER_0_7_125 VGND VGND VPWR VPWR sky130_ef_sc_hd__decap_12
Xstrobe_outbuf_13__0_ FrameStrobe_O_i\[13\] VGND VGND VPWR VPWR net62 sky130_fd_sc_hd__buf_1
XPHY_6 VGND VGND VPWR VPWR sky130_fd_sc_hd__decap_3
XFILLER_0_4_106 VGND VGND VPWR VPWR sky130_fd_sc_hd__decap_8
XFILLER_0_7_27 VGND VGND VPWR VPWR sky130_ef_sc_hd__decap_12
XInst_N_term_RAM_IO_switch_matrix__11_ net33 VGND VGND VPWR VPWR net89 sky130_fd_sc_hd__clkbuf_1
XFILLER_0_5_201 VGND VGND VPWR VPWR sky130_fd_sc_hd__fill_2
XFILLER_0_5_245 VGND VGND VPWR VPWR sky130_fd_sc_hd__fill_2
XFILLER_0_3_3 VGND VGND VPWR VPWR sky130_ef_sc_hd__decap_12
Xstrobe_inbuf_10__0_ net2 VGND VGND VPWR VPWR FrameStrobe_O_i\[10\] sky130_fd_sc_hd__clkbuf_1
XFILLER_0_2_226 VGND VGND VPWR VPWR sky130_fd_sc_hd__fill_1
XFILLER_0_1_29 VGND VGND VPWR VPWR sky130_ef_sc_hd__decap_12
XTAP_90 VGND VPWR sky130_fd_sc_hd__tapvpwrvgnd_1
Xinput1 FrameStrobe[0] VGND VGND VPWR VPWR net1 sky130_fd_sc_hd__clkbuf_1
Xstrobe_outbuf_8__0_ FrameStrobe_O_i\[8\] VGND VGND VPWR VPWR net76 sky130_fd_sc_hd__clkbuf_1
XFILLER_0_7_137 VGND VGND VPWR VPWR sky130_ef_sc_hd__decap_12
XPHY_7 VGND VGND VPWR VPWR sky130_fd_sc_hd__decap_3
XFILLER_0_7_39 VGND VGND VPWR VPWR sky130_ef_sc_hd__decap_12
XInst_N_term_RAM_IO_switch_matrix__10_ net34 VGND VGND VPWR VPWR net88 sky130_fd_sc_hd__clkbuf_1
XFILLER_0_0_110 VGND VGND VPWR VPWR sky130_fd_sc_hd__fill_2
XFILLER_0_8_221 VGND VGND VPWR VPWR sky130_ef_sc_hd__decap_12
XFILLER_0_4_29 VGND VGND VPWR VPWR sky130_ef_sc_hd__decap_12
XTAP_91 VGND VPWR sky130_fd_sc_hd__tapvpwrvgnd_1
XTAP_80 VGND VPWR sky130_fd_sc_hd__tapvpwrvgnd_1
Xinput2 FrameStrobe[10] VGND VGND VPWR VPWR net2 sky130_fd_sc_hd__buf_1
XFILLER_0_11_111 VGND VGND VPWR VPWR sky130_fd_sc_hd__fill_1
XFILLER_0_7_149 VGND VGND VPWR VPWR sky130_ef_sc_hd__decap_12
XFILLER_0_7_105 VGND VGND VPWR VPWR sky130_fd_sc_hd__decap_6
XPHY_8 VGND VGND VPWR VPWR sky130_fd_sc_hd__decap_3
XFILLER_0_4_119 VGND VGND VPWR VPWR sky130_fd_sc_hd__decap_8
XFILLER_0_8_233 VGND VGND VPWR VPWR sky130_ef_sc_hd__decap_12
XFILLER_0_8_83 VGND VGND VPWR VPWR sky130_fd_sc_hd__fill_1
XFILLER_0_10_209 VGND VGND VPWR VPWR sky130_ef_sc_hd__decap_12
XFILLER_0_5_225 VGND VGND VPWR VPWR sky130_ef_sc_hd__decap_12
Xstrobe_inbuf_1__0_ net12 VGND VGND VPWR VPWR FrameStrobe_O_i\[1\] sky130_fd_sc_hd__clkbuf_1
XFILLER_0_5_51 VGND VGND VPWR VPWR sky130_fd_sc_hd__decap_4
XTAP_81 VGND VPWR sky130_fd_sc_hd__tapvpwrvgnd_1
XTAP_70 VGND VPWR sky130_fd_sc_hd__tapvpwrvgnd_1
Xinput3 FrameStrobe[11] VGND VGND VPWR VPWR net3 sky130_fd_sc_hd__clkbuf_1
XFILLER_0_11_167 VGND VGND VPWR VPWR sky130_fd_sc_hd__fill_1
Xstrobe_outbuf_16__0_ FrameStrobe_O_i\[16\] VGND VGND VPWR VPWR net65 sky130_fd_sc_hd__clkbuf_1
XFILLER_0_2_41 VGND VGND VPWR VPWR sky130_ef_sc_hd__decap_12
XFILLER_0_2_85 VGND VGND VPWR VPWR sky130_ef_sc_hd__decap_12
Xinst_clk_buf net57 VGND VGND VPWR VPWR net114 sky130_fd_sc_hd__clkbuf_2
XPHY_9 VGND VGND VPWR VPWR sky130_fd_sc_hd__decap_3
Xinput50 N4END[3] VGND VGND VPWR VPWR net50 sky130_fd_sc_hd__buf_1
XFILLER_0_13_218 VGND VGND VPWR VPWR sky130_fd_sc_hd__fill_1
XFILLER_0_8_245 VGND VGND VPWR VPWR sky130_fd_sc_hd__decap_6
XFILLER_0_12_251 VGND VGND VPWR VPWR sky130_fd_sc_hd__fill_1
Xstrobe_inbuf_13__0_ net5 VGND VGND VPWR VPWR FrameStrobe_O_i\[13\] sky130_fd_sc_hd__clkbuf_1
XFILLER_0_5_237 VGND VGND VPWR VPWR sky130_fd_sc_hd__decap_8
XFILLER_0_12_3 VGND VGND VPWR VPWR sky130_ef_sc_hd__decap_12
XFILLER_0_1_3 VGND VGND VPWR VPWR sky130_fd_sc_hd__fill_2
XTAP_82 VGND VPWR sky130_fd_sc_hd__tapvpwrvgnd_1
XFILLER_0_11_55 VGND VGND VPWR VPWR sky130_fd_sc_hd__fill_1
XTAP_71 VGND VPWR sky130_fd_sc_hd__tapvpwrvgnd_1
Xinput4 FrameStrobe[12] VGND VGND VPWR VPWR net4 sky130_fd_sc_hd__buf_1
XTAP_60 VGND VPWR sky130_fd_sc_hd__tapvpwrvgnd_1
XFILLER_0_9_181 VGND VGND VPWR VPWR sky130_ef_sc_hd__decap_12
XFILLER_0_11_113 VGND VGND VPWR VPWR sky130_ef_sc_hd__decap_12
XFILLER_0_6_195 VGND VGND VPWR VPWR sky130_fd_sc_hd__fill_1
XFILLER_0_2_53 VGND VGND VPWR VPWR sky130_ef_sc_hd__decap_12
XFILLER_0_2_97 VGND VGND VPWR VPWR sky130_fd_sc_hd__decap_6
Xinput51 N4END[4] VGND VGND VPWR VPWR net51 sky130_fd_sc_hd__buf_1
Xinput40 N2MID[7] VGND VGND VPWR VPWR net40 sky130_fd_sc_hd__buf_1
XFILLER_0_0_113 VGND VGND VPWR VPWR sky130_fd_sc_hd__fill_1
XFILLER_0_8_85 VGND VGND VPWR VPWR sky130_ef_sc_hd__decap_12
XFILLER_0_8_41 VGND VGND VPWR VPWR sky130_ef_sc_hd__decap_12
XFILLER_0_2_208 VGND VGND VPWR VPWR sky130_ef_sc_hd__decap_12
Xinput5 FrameStrobe[13] VGND VGND VPWR VPWR net5 sky130_fd_sc_hd__clkbuf_1
XTAP_83 VGND VPWR sky130_fd_sc_hd__tapvpwrvgnd_1
XTAP_72 VGND VPWR sky130_fd_sc_hd__tapvpwrvgnd_1
XTAP_50 VGND VPWR sky130_fd_sc_hd__tapvpwrvgnd_1
XTAP_61 VGND VPWR sky130_fd_sc_hd__tapvpwrvgnd_1
XFILLER_0_9_193 VGND VGND VPWR VPWR sky130_ef_sc_hd__decap_12
XFILLER_0_11_169 VGND VGND VPWR VPWR sky130_ef_sc_hd__decap_12
XFILLER_0_11_125 VGND VGND VPWR VPWR sky130_ef_sc_hd__decap_12
XFILLER_0_2_65 VGND VGND VPWR VPWR sky130_ef_sc_hd__decap_12
XFILLER_0_6_141 VGND VGND VPWR VPWR sky130_ef_sc_hd__decap_12
Xinput52 N4END[5] VGND VGND VPWR VPWR net52 sky130_fd_sc_hd__buf_1
Xinput41 N4END[0] VGND VGND VPWR VPWR net41 sky130_fd_sc_hd__buf_1
Xinput30 N2END[5] VGND VGND VPWR VPWR net30 sky130_fd_sc_hd__clkbuf_1
XFILLER_0_3_111 VGND VGND VPWR VPWR sky130_fd_sc_hd__fill_1
XFILLER_0_3_166 VGND VGND VPWR VPWR sky130_fd_sc_hd__fill_2
XFILLER_0_8_97 VGND VGND VPWR VPWR sky130_ef_sc_hd__decap_12
XFILLER_0_8_53 VGND VGND VPWR VPWR sky130_ef_sc_hd__decap_12
XFILLER_0_5_206 VGND VGND VPWR VPWR sky130_ef_sc_hd__decap_12
Xstrobe_inbuf_4__0_ net15 VGND VGND VPWR VPWR FrameStrobe_O_i\[4\] sky130_fd_sc_hd__clkbuf_1
XFILLER_0_4_250 VGND VGND VPWR VPWR sky130_fd_sc_hd__fill_2
XFILLER_0_11_57 VGND VGND VPWR VPWR sky130_ef_sc_hd__decap_12
XTAP_84 VGND VPWR sky130_fd_sc_hd__tapvpwrvgnd_1
XTAP_73 VGND VPWR sky130_fd_sc_hd__tapvpwrvgnd_1
XTAP_62 VGND VPWR sky130_fd_sc_hd__tapvpwrvgnd_1
XTAP_40 VGND VPWR sky130_fd_sc_hd__tapvpwrvgnd_1
Xinput6 FrameStrobe[14] VGND VGND VPWR VPWR net6 sky130_fd_sc_hd__clkbuf_1
XTAP_51 VGND VPWR sky130_fd_sc_hd__tapvpwrvgnd_1
Xstrobe_outbuf_19__0_ FrameStrobe_O_i\[19\] VGND VGND VPWR VPWR net68 sky130_fd_sc_hd__clkbuf_1
XFILLER_0_9_161 VGND VGND VPWR VPWR sky130_fd_sc_hd__decap_6
XFILLER_0_11_137 VGND VGND VPWR VPWR sky130_ef_sc_hd__decap_12
XFILLER_0_6_197 VGND VGND VPWR VPWR sky130_ef_sc_hd__decap_12
XFILLER_0_6_153 VGND VGND VPWR VPWR sky130_ef_sc_hd__decap_12
Xinput31 N2END[6] VGND VGND VPWR VPWR net31 sky130_fd_sc_hd__clkbuf_1
Xstrobe_outbuf_1__0_ FrameStrobe_O_i\[1\] VGND VGND VPWR VPWR net69 sky130_fd_sc_hd__buf_1
Xinput20 FrameStrobe[9] VGND VGND VPWR VPWR net20 sky130_fd_sc_hd__buf_1
Xinput42 N4END[10] VGND VGND VPWR VPWR net42 sky130_fd_sc_hd__clkbuf_1
Xinput53 N4END[6] VGND VGND VPWR VPWR net53 sky130_fd_sc_hd__clkbuf_1
Xstrobe_inbuf_16__0_ net8 VGND VGND VPWR VPWR FrameStrobe_O_i\[16\] sky130_fd_sc_hd__clkbuf_1
XFILLER_0_12_221 VGND VGND VPWR VPWR sky130_ef_sc_hd__decap_12
XFILLER_0_8_65 VGND VGND VPWR VPWR sky130_ef_sc_hd__decap_12
XFILLER_0_5_218 VGND VGND VPWR VPWR sky130_fd_sc_hd__decap_6
XFILLER_0_4_240 VGND VGND VPWR VPWR sky130_fd_sc_hd__fill_1
XFILLER_0_10_3 VGND VGND VPWR VPWR sky130_ef_sc_hd__decap_12
XFILLER_0_5_55 VGND VGND VPWR VPWR sky130_fd_sc_hd__fill_1
XFILLER_0_11_69 VGND VGND VPWR VPWR sky130_ef_sc_hd__decap_12
XTAP_85 VGND VPWR sky130_fd_sc_hd__tapvpwrvgnd_1
XTAP_74 VGND VPWR sky130_fd_sc_hd__tapvpwrvgnd_1
XTAP_63 VGND VPWR sky130_fd_sc_hd__tapvpwrvgnd_1
XTAP_30 VGND VPWR sky130_fd_sc_hd__tapvpwrvgnd_1
XTAP_41 VGND VPWR sky130_fd_sc_hd__tapvpwrvgnd_1
Xinput7 FrameStrobe[15] VGND VGND VPWR VPWR net7 sky130_fd_sc_hd__clkbuf_1
XTAP_52 VGND VPWR sky130_fd_sc_hd__tapvpwrvgnd_1
XFILLER_0_11_149 VGND VGND VPWR VPWR sky130_ef_sc_hd__decap_12
XFILLER_0_11_105 VGND VGND VPWR VPWR sky130_fd_sc_hd__decap_6
XFILLER_0_2_12 VGND VGND VPWR VPWR sky130_ef_sc_hd__decap_12
XFILLER_0_6_165 VGND VGND VPWR VPWR sky130_ef_sc_hd__decap_12
XFILLER_0_6_121 VGND VGND VPWR VPWR sky130_ef_sc_hd__decap_12
Xinput43 N4END[11] VGND VGND VPWR VPWR net43 sky130_fd_sc_hd__clkbuf_1
Xinput54 N4END[7] VGND VGND VPWR VPWR net54 sky130_fd_sc_hd__buf_1
Xinput32 N2END[7] VGND VGND VPWR VPWR net32 sky130_fd_sc_hd__clkbuf_1
Xinput21 N1END[0] VGND VGND VPWR VPWR net21 sky130_fd_sc_hd__clkbuf_1
Xinput10 FrameStrobe[18] VGND VGND VPWR VPWR net10 sky130_fd_sc_hd__clkbuf_1
XFILLER_0_3_113 VGND VGND VPWR VPWR sky130_ef_sc_hd__decap_12
XFILLER_0_12_233 VGND VGND VPWR VPWR sky130_ef_sc_hd__decap_12
XFILLER_0_8_77 VGND VGND VPWR VPWR sky130_fd_sc_hd__decap_6
XFILLER_0_0_138 VGND VGND VPWR VPWR sky130_fd_sc_hd__fill_2
XFILLER_0_11_15 VGND VGND VPWR VPWR sky130_ef_sc_hd__decap_12
XTAP_86 VGND VPWR sky130_fd_sc_hd__tapvpwrvgnd_1
XTAP_75 VGND VPWR sky130_fd_sc_hd__tapvpwrvgnd_1
XTAP_64 VGND VPWR sky130_fd_sc_hd__tapvpwrvgnd_1
XTAP_31 VGND VPWR sky130_fd_sc_hd__tapvpwrvgnd_1
XTAP_42 VGND VPWR sky130_fd_sc_hd__tapvpwrvgnd_1
Xinput8 FrameStrobe[16] VGND VGND VPWR VPWR net8 sky130_fd_sc_hd__clkbuf_1
XTAP_53 VGND VPWR sky130_fd_sc_hd__tapvpwrvgnd_1
XFILLER_0_6_177 VGND VGND VPWR VPWR sky130_ef_sc_hd__decap_12
XFILLER_0_2_24 VGND VGND VPWR VPWR sky130_fd_sc_hd__decap_4
XFILLER_0_6_133 VGND VGND VPWR VPWR sky130_fd_sc_hd__decap_6
Xinput44 N4END[12] VGND VGND VPWR VPWR net44 sky130_fd_sc_hd__clkbuf_1
Xinput55 N4END[8] VGND VGND VPWR VPWR net55 sky130_fd_sc_hd__clkbuf_1
Xinput22 N1END[1] VGND VGND VPWR VPWR net22 sky130_fd_sc_hd__clkbuf_1
Xinput33 N2MID[0] VGND VGND VPWR VPWR net33 sky130_fd_sc_hd__buf_1
XFILLER_0_3_103 VGND VGND VPWR VPWR sky130_fd_sc_hd__decap_8
XFILLER_0_3_125 VGND VGND VPWR VPWR sky130_ef_sc_hd__decap_12
XFILLER_0_3_158 VGND VGND VPWR VPWR sky130_fd_sc_hd__decap_8
XFILLER_0_3_169 VGND VGND VPWR VPWR sky130_ef_sc_hd__decap_12
Xinput11 FrameStrobe[19] VGND VGND VPWR VPWR net11 sky130_fd_sc_hd__clkbuf_1
XFILLER_0_2_191 VGND VGND VPWR VPWR sky130_fd_sc_hd__decap_4
XFILLER_0_0_128 VGND VGND VPWR VPWR sky130_fd_sc_hd__fill_2
XFILLER_0_12_245 VGND VGND VPWR VPWR sky130_fd_sc_hd__decap_6
Xstrobe_inbuf_7__0_ net18 VGND VGND VPWR VPWR FrameStrobe_O_i\[7\] sky130_fd_sc_hd__clkbuf_1
XFILLER_0_4_220 VGND VGND VPWR VPWR sky130_ef_sc_hd__decap_12
XInst_N_term_RAM_IO_switch_matrix__29_ net44 VGND VGND VPWR VPWR net107 sky130_fd_sc_hd__buf_1
XFILLER_0_5_57 VGND VGND VPWR VPWR sky130_ef_sc_hd__decap_12
XTAP_87 VGND VPWR sky130_fd_sc_hd__tapvpwrvgnd_1
XTAP_76 VGND VPWR sky130_fd_sc_hd__tapvpwrvgnd_1
XFILLER_0_11_27 VGND VGND VPWR VPWR sky130_ef_sc_hd__decap_12
XTAP_65 VGND VPWR sky130_fd_sc_hd__tapvpwrvgnd_1
XTAP_32 VGND VPWR sky130_fd_sc_hd__tapvpwrvgnd_1
XTAP_43 VGND VPWR sky130_fd_sc_hd__tapvpwrvgnd_1
Xinput9 FrameStrobe[17] VGND VGND VPWR VPWR net9 sky130_fd_sc_hd__clkbuf_1
XTAP_54 VGND VPWR sky130_fd_sc_hd__tapvpwrvgnd_1
XFILLER_0_6_189 VGND VGND VPWR VPWR sky130_fd_sc_hd__decap_6
Xstrobe_outbuf_4__0_ FrameStrobe_O_i\[4\] VGND VGND VPWR VPWR net72 sky130_fd_sc_hd__clkbuf_1
Xoutput110 net110 VGND VGND VPWR VPWR S4BEG[6] sky130_fd_sc_hd__clkbuf_4
XFILLER_0_10_195 VGND VGND VPWR VPWR sky130_fd_sc_hd__fill_1
Xinput45 N4END[13] VGND VGND VPWR VPWR net45 sky130_fd_sc_hd__clkbuf_1
Xinput56 N4END[9] VGND VGND VPWR VPWR net56 sky130_fd_sc_hd__buf_1
Xinput34 N2MID[1] VGND VGND VPWR VPWR net34 sky130_fd_sc_hd__buf_1
Xinput12 FrameStrobe[1] VGND VGND VPWR VPWR net12 sky130_fd_sc_hd__clkbuf_1
Xinput23 N1END[2] VGND VGND VPWR VPWR net23 sky130_fd_sc_hd__clkbuf_1
XFILLER_0_3_137 VGND VGND VPWR VPWR sky130_ef_sc_hd__decap_12
Xstrobe_inbuf_19__0_ net11 VGND VGND VPWR VPWR FrameStrobe_O_i\[19\] sky130_fd_sc_hd__clkbuf_1
XFILLER_0_4_232 VGND VGND VPWR VPWR sky130_fd_sc_hd__decap_8
XInst_N_term_RAM_IO_switch_matrix__28_ net45 VGND VGND VPWR VPWR net106 sky130_fd_sc_hd__clkbuf_1
XFILLER_0_5_69 VGND VGND VPWR VPWR sky130_ef_sc_hd__decap_12
XFILLER_0_11_39 VGND VGND VPWR VPWR sky130_ef_sc_hd__decap_12
XTAP_33 VGND VPWR sky130_fd_sc_hd__tapvpwrvgnd_1
XTAP_88 VGND VPWR sky130_fd_sc_hd__tapvpwrvgnd_1
XTAP_77 VGND VPWR sky130_fd_sc_hd__tapvpwrvgnd_1
XTAP_66 VGND VPWR sky130_fd_sc_hd__tapvpwrvgnd_1
XTAP_44 VGND VPWR sky130_fd_sc_hd__tapvpwrvgnd_1
XTAP_55 VGND VPWR sky130_fd_sc_hd__tapvpwrvgnd_1
XFILLER_0_13_160 VGND VGND VPWR VPWR sky130_fd_sc_hd__decap_8
XFILLER_0_10_141 VGND VGND VPWR VPWR sky130_ef_sc_hd__decap_12
Xoutput111 net111 VGND VGND VPWR VPWR S4BEG[7] sky130_fd_sc_hd__clkbuf_4
Xoutput100 net100 VGND VGND VPWR VPWR S4BEG[11] sky130_fd_sc_hd__clkbuf_4
Xinput46 N4END[14] VGND VGND VPWR VPWR net46 sky130_fd_sc_hd__clkbuf_1
Xinput24 N1END[3] VGND VGND VPWR VPWR net24 sky130_fd_sc_hd__clkbuf_1
Xinput57 UserCLK VGND VGND VPWR VPWR net57 sky130_fd_sc_hd__clkbuf_1
Xinput13 FrameStrobe[2] VGND VGND VPWR VPWR net13 sky130_fd_sc_hd__clkbuf_1
Xinput35 N2MID[2] VGND VGND VPWR VPWR net35 sky130_fd_sc_hd__buf_1
XFILLER_0_3_149 VGND VGND VPWR VPWR sky130_fd_sc_hd__decap_6
XFILLER_0_3_91 VGND VGND VPWR VPWR sky130_ef_sc_hd__decap_12
XFILLER_0_8_3 VGND VGND VPWR VPWR sky130_ef_sc_hd__decap_12
XInst_N_term_RAM_IO_switch_matrix__27_ net41 VGND VGND VPWR VPWR net104 sky130_fd_sc_hd__clkbuf_1
XFILLER_0_5_15 VGND VGND VPWR VPWR sky130_ef_sc_hd__decap_12
XTAP_89 VGND VPWR sky130_fd_sc_hd__tapvpwrvgnd_1
XTAP_78 VGND VPWR sky130_fd_sc_hd__tapvpwrvgnd_1
XTAP_67 VGND VPWR sky130_fd_sc_hd__tapvpwrvgnd_1
XTAP_34 VGND VPWR sky130_fd_sc_hd__tapvpwrvgnd_1
XTAP_45 VGND VPWR sky130_fd_sc_hd__tapvpwrvgnd_1
XTAP_56 VGND VPWR sky130_fd_sc_hd__tapvpwrvgnd_1
XFILLER_0_9_111 VGND VGND VPWR VPWR sky130_fd_sc_hd__fill_1
XFILLER_0_12_83 VGND VGND VPWR VPWR sky130_fd_sc_hd__fill_1
XFILLER_0_10_197 VGND VGND VPWR VPWR sky130_ef_sc_hd__decap_12
XFILLER_0_10_153 VGND VGND VPWR VPWR sky130_ef_sc_hd__decap_12
Xoutput112 net112 VGND VGND VPWR VPWR S4BEG[8] sky130_fd_sc_hd__clkbuf_4
Xoutput101 net101 VGND VGND VPWR VPWR S4BEG[12] sky130_fd_sc_hd__clkbuf_4
Xstrobe_outbuf_12__0_ FrameStrobe_O_i\[12\] VGND VGND VPWR VPWR net61 sky130_fd_sc_hd__clkbuf_1
Xinput25 N2END[0] VGND VGND VPWR VPWR net25 sky130_fd_sc_hd__buf_1
Xinput36 N2MID[3] VGND VGND VPWR VPWR net36 sky130_fd_sc_hd__buf_1
Xinput14 FrameStrobe[3] VGND VGND VPWR VPWR net14 sky130_fd_sc_hd__buf_1
Xinput47 N4END[15] VGND VGND VPWR VPWR net47 sky130_fd_sc_hd__clkbuf_1
XFILLER_0_2_161 VGND VGND VPWR VPWR sky130_fd_sc_hd__fill_2
XFILLER_0_8_209 VGND VGND VPWR VPWR sky130_ef_sc_hd__decap_12
XFILLER_0_8_15 VGND VGND VPWR VPWR sky130_ef_sc_hd__decap_12
XInst_N_term_RAM_IO_switch_matrix__26_ net48 VGND VGND VPWR VPWR net103 sky130_fd_sc_hd__clkbuf_1
XFILLER_0_5_27 VGND VGND VPWR VPWR sky130_ef_sc_hd__decap_12
XTAP_79 VGND VPWR sky130_fd_sc_hd__tapvpwrvgnd_1
XTAP_68 VGND VPWR sky130_fd_sc_hd__tapvpwrvgnd_1
XInst_N_term_RAM_IO_switch_matrix__09_ net35 VGND VGND VPWR VPWR net87 sky130_fd_sc_hd__clkbuf_1
XTAP_35 VGND VPWR sky130_fd_sc_hd__tapvpwrvgnd_1
XTAP_46 VGND VPWR sky130_fd_sc_hd__tapvpwrvgnd_1
XTAP_57 VGND VPWR sky130_fd_sc_hd__tapvpwrvgnd_1
XFILLER_0_13_184 VGND VGND VPWR VPWR sky130_ef_sc_hd__decap_12
XFILLER_0_9_167 VGND VGND VPWR VPWR sky130_fd_sc_hd__fill_1
Xstrobe_outbuf_7__0_ FrameStrobe_O_i\[7\] VGND VGND VPWR VPWR net75 sky130_fd_sc_hd__clkbuf_1
XFILLER_0_10_165 VGND VGND VPWR VPWR sky130_ef_sc_hd__decap_12
XFILLER_0_10_121 VGND VGND VPWR VPWR sky130_ef_sc_hd__decap_12