* NGSPICE file created from N_term_single.ext - technology: sky130A

* Black-box entry subcircuit for sky130_fd_sc_hd__decap_4 abstract view
.subckt sky130_fd_sc_hd__decap_4 VGND VNB VPB VPWR
.ends

* Black-box entry subcircuit for sky130_ef_sc_hd__decap_12 abstract view
.subckt sky130_ef_sc_hd__decap_12 VGND VNB VPB VPWR
.ends

* Black-box entry subcircuit for sky130_fd_sc_hd__buf_1 abstract view
.subckt sky130_fd_sc_hd__buf_1 A VGND VNB VPB VPWR X
.ends

* Black-box entry subcircuit for sky130_fd_sc_hd__fill_1 abstract view
.subckt sky130_fd_sc_hd__fill_1 VGND VNB VPB VPWR
.ends

* Black-box entry subcircuit for sky130_fd_sc_hd__clkbuf_4 abstract view
.subckt sky130_fd_sc_hd__clkbuf_4 A VGND VNB VPB VPWR X
.ends

* Black-box entry subcircuit for sky130_fd_sc_hd__tapvpwrvgnd_1 abstract view
.subckt sky130_fd_sc_hd__tapvpwrvgnd_1 VGND VPWR
.ends

* Black-box entry subcircuit for sky130_fd_sc_hd__clkbuf_2 abstract view
.subckt sky130_fd_sc_hd__clkbuf_2 A VGND VNB VPB VPWR X
.ends

* Black-box entry subcircuit for sky130_fd_sc_hd__decap_6 abstract view
.subckt sky130_fd_sc_hd__decap_6 VGND VNB VPB VPWR
.ends

* Black-box entry subcircuit for sky130_fd_sc_hd__clkbuf_1 abstract view
.subckt sky130_fd_sc_hd__clkbuf_1 A VGND VNB VPB VPWR X
.ends

* Black-box entry subcircuit for sky130_fd_sc_hd__decap_3 abstract view
.subckt sky130_fd_sc_hd__decap_3 VGND VNB VPB VPWR
.ends

* Black-box entry subcircuit for sky130_fd_sc_hd__fill_2 abstract view
.subckt sky130_fd_sc_hd__fill_2 VGND VNB VPB VPWR
.ends

* Black-box entry subcircuit for sky130_fd_sc_hd__decap_8 abstract view
.subckt sky130_fd_sc_hd__decap_8 VGND VNB VPB VPWR
.ends

* Black-box entry subcircuit for sky130_fd_sc_hd__diode_2 abstract view
.subckt sky130_fd_sc_hd__diode_2 DIODE VGND VNB VPB VPWR
.ends

.subckt N_term_single Ci FrameStrobe[0] FrameStrobe[10] FrameStrobe[11] FrameStrobe[12]
+ FrameStrobe[13] FrameStrobe[14] FrameStrobe[15] FrameStrobe[16] FrameStrobe[17]
+ FrameStrobe[18] FrameStrobe[19] FrameStrobe[1] FrameStrobe[2] FrameStrobe[3] FrameStrobe[4]
+ FrameStrobe[5] FrameStrobe[6] FrameStrobe[7] FrameStrobe[8] FrameStrobe[9] FrameStrobe_O[0]
+ FrameStrobe_O[10] FrameStrobe_O[11] FrameStrobe_O[12] FrameStrobe_O[13] FrameStrobe_O[14]
+ FrameStrobe_O[15] FrameStrobe_O[16] FrameStrobe_O[17] FrameStrobe_O[18] FrameStrobe_O[19]
+ FrameStrobe_O[1] FrameStrobe_O[2] FrameStrobe_O[3] FrameStrobe_O[4] FrameStrobe_O[5]
+ FrameStrobe_O[6] FrameStrobe_O[7] FrameStrobe_O[8] FrameStrobe_O[9] N1END[0] N1END[1]
+ N1END[2] N1END[3] N2END[0] N2END[1] N2END[2] N2END[3] N2END[4] N2END[5] N2END[6]
+ N2END[7] N2MID[0] N2MID[1] N2MID[2] N2MID[3] N2MID[4] N2MID[5] N2MID[6] N2MID[7]
+ N4END[0] N4END[10] N4END[11] N4END[12] N4END[13] N4END[14] N4END[15] N4END[1] N4END[2]
+ N4END[3] N4END[4] N4END[5] N4END[6] N4END[7] N4END[8] N4END[9] NN4END[0] NN4END[10]
+ NN4END[11] NN4END[12] NN4END[13] NN4END[14] NN4END[15] NN4END[1] NN4END[2] NN4END[3]
+ NN4END[4] NN4END[5] NN4END[6] NN4END[7] NN4END[8] NN4END[9] S1BEG[0] S1BEG[1] S1BEG[2]
+ S1BEG[3] S2BEG[0] S2BEG[1] S2BEG[2] S2BEG[3] S2BEG[4] S2BEG[5] S2BEG[6] S2BEG[7]
+ S2BEGb[0] S2BEGb[1] S2BEGb[2] S2BEGb[3] S2BEGb[4] S2BEGb[5] S2BEGb[6] S2BEGb[7]
+ S4BEG[0] S4BEG[10] S4BEG[11] S4BEG[12] S4BEG[13] S4BEG[14] S4BEG[15] S4BEG[1] S4BEG[2]
+ S4BEG[3] S4BEG[4] S4BEG[5] S4BEG[6] S4BEG[7] S4BEG[8] S4BEG[9] SS4BEG[0] SS4BEG[10]
+ SS4BEG[11] SS4BEG[12] SS4BEG[13] SS4BEG[14] SS4BEG[15] SS4BEG[1] SS4BEG[2] SS4BEG[3]
+ SS4BEG[4] SS4BEG[5] SS4BEG[6] SS4BEG[7] SS4BEG[8] SS4BEG[9] UserCLK UserCLKo vccd1
+ vssd1
XFILLER_0_9_444 vssd1 vssd1 vccd1 vccd1 sky130_fd_sc_hd__decap_4
XFILLER_0_7_81 vssd1 vssd1 vccd1 vccd1 sky130_ef_sc_hd__decap_12
XFILLER_0_3_39 vssd1 vssd1 vccd1 vccd1 sky130_ef_sc_hd__decap_12
X_66_ net1 vssd1 vssd1 vccd1 vccd1 net74 sky130_fd_sc_hd__buf_1
XFILLER_0_6_233 vssd1 vssd1 vccd1 vccd1 sky130_ef_sc_hd__decap_12
XFILLER_0_3_417 vssd1 vssd1 vccd1 vccd1 sky130_ef_sc_hd__decap_12
XFILLER_0_9_27 vssd1 vssd1 vccd1 vccd1 sky130_fd_sc_hd__fill_1
XFILLER_0_0_29 vssd1 vssd1 vccd1 vccd1 sky130_ef_sc_hd__decap_12
XFILLER_0_3_225 vssd1 vssd1 vccd1 vccd1 sky130_ef_sc_hd__decap_12
X_49_ net63 vssd1 vssd1 vccd1 vccd1 net130 sky130_fd_sc_hd__buf_1
XFILLER_0_7_361 vssd1 vssd1 vccd1 vccd1 sky130_ef_sc_hd__decap_12
Xoutput75 net75 vssd1 vssd1 vccd1 vccd1 FrameStrobe_O[10] sky130_fd_sc_hd__clkbuf_4
Xoutput86 net86 vssd1 vssd1 vccd1 vccd1 FrameStrobe_O[2] sky130_fd_sc_hd__clkbuf_4
Xoutput97 net97 vssd1 vssd1 vccd1 vccd1 S1BEG[3] sky130_fd_sc_hd__clkbuf_4
XTAP_112 vssd1 vccd1 sky130_fd_sc_hd__tapvpwrvgnd_1
XTAP_101 vssd1 vccd1 sky130_fd_sc_hd__tapvpwrvgnd_1
XFILLER_0_7_93 vssd1 vssd1 vccd1 vccd1 sky130_ef_sc_hd__decap_12
XFILLER_0_2_109 vssd1 vssd1 vccd1 vccd1 sky130_ef_sc_hd__decap_12
XFILLER_0_9_253 vssd1 vssd1 vccd1 vccd1 sky130_fd_sc_hd__fill_1
X_65_ net73 vssd1 vssd1 vccd1 vccd1 net146 sky130_fd_sc_hd__clkbuf_2
XFILLER_0_3_429 vssd1 vssd1 vccd1 vccd1 sky130_ef_sc_hd__decap_12
XFILLER_0_6_245 vssd1 vssd1 vccd1 vccd1 sky130_fd_sc_hd__decap_6
XFILLER_0_4_83 vssd1 vssd1 vccd1 vccd1 sky130_fd_sc_hd__fill_1
X_48_ net41 vssd1 vssd1 vccd1 vccd1 net120 sky130_fd_sc_hd__clkbuf_1
XFILLER_0_3_237 vssd1 vssd1 vccd1 vccd1 sky130_ef_sc_hd__decap_12
XFILLER_0_8_307 vssd1 vssd1 vccd1 vccd1 sky130_fd_sc_hd__fill_1
XFILLER_0_7_373 vssd1 vssd1 vccd1 vccd1 sky130_ef_sc_hd__decap_12
XFILLER_0_1_62 vssd1 vssd1 vccd1 vccd1 sky130_ef_sc_hd__decap_12
XFILLER_0_1_51 vssd1 vssd1 vccd1 vccd1 sky130_fd_sc_hd__decap_4
XFILLER_0_6_29 vssd1 vssd1 vccd1 vccd1 sky130_ef_sc_hd__decap_12
XFILLER_0_4_365 vssd1 vssd1 vccd1 vccd1 sky130_ef_sc_hd__decap_12
XFILLER_0_4_321 vssd1 vssd1 vccd1 vccd1 sky130_ef_sc_hd__decap_12
Xoutput76 net76 vssd1 vssd1 vccd1 vccd1 FrameStrobe_O[11] sky130_fd_sc_hd__clkbuf_4
Xoutput87 net87 vssd1 vssd1 vccd1 vccd1 FrameStrobe_O[3] sky130_fd_sc_hd__clkbuf_4
XFILLER_0_7_181 vssd1 vssd1 vccd1 vccd1 sky130_ef_sc_hd__decap_12
Xoutput98 net98 vssd1 vssd1 vccd1 vccd1 S2BEG[0] sky130_fd_sc_hd__clkbuf_4
XFILLER_0_9_435 vssd1 vssd1 vccd1 vccd1 sky130_fd_sc_hd__decap_3
XFILLER_0_9_402 vssd1 vssd1 vccd1 vccd1 sky130_ef_sc_hd__decap_12
XTAP_113 vssd1 vccd1 sky130_fd_sc_hd__tapvpwrvgnd_1
XTAP_102 vssd1 vccd1 sky130_fd_sc_hd__tapvpwrvgnd_1
XFILLER_0_1_335 vssd1 vssd1 vccd1 vccd1 sky130_fd_sc_hd__fill_1
XFILLER_0_4_195 vssd1 vssd1 vccd1 vccd1 sky130_fd_sc_hd__fill_1
XFILLER_0_1_110 vssd1 vssd1 vccd1 vccd1 sky130_fd_sc_hd__fill_2
XFILLER_0_9_298 vssd1 vssd1 vccd1 vccd1 sky130_fd_sc_hd__fill_2
X_64_ net57 vssd1 vssd1 vccd1 vccd1 net136 sky130_fd_sc_hd__buf_1
X_47_ net48 vssd1 vssd1 vccd1 vccd1 net119 sky130_fd_sc_hd__clkbuf_1
XFILLER_0_3_205 vssd1 vssd1 vccd1 vccd1 sky130_ef_sc_hd__decap_12
XFILLER_0_3_249 vssd1 vssd1 vccd1 vccd1 sky130_ef_sc_hd__decap_12
XFILLER_0_7_385 vssd1 vssd1 vccd1 vccd1 sky130_fd_sc_hd__decap_6
XFILLER_0_1_74 vssd1 vssd1 vccd1 vccd1 sky130_ef_sc_hd__decap_12
XFILLER_0_4_377 vssd1 vssd1 vccd1 vccd1 sky130_ef_sc_hd__decap_12
XFILLER_0_4_333 vssd1 vssd1 vccd1 vccd1 sky130_ef_sc_hd__decap_12
Xoutput77 net77 vssd1 vssd1 vccd1 vccd1 FrameStrobe_O[12] sky130_fd_sc_hd__clkbuf_4
Xoutput88 net88 vssd1 vssd1 vccd1 vccd1 FrameStrobe_O[4] sky130_fd_sc_hd__clkbuf_4
XFILLER_0_7_193 vssd1 vssd1 vccd1 vccd1 sky130_ef_sc_hd__decap_12
Xoutput99 net99 vssd1 vssd1 vccd1 vccd1 S2BEG[1] sky130_fd_sc_hd__clkbuf_4
XTAP_114 vssd1 vccd1 sky130_fd_sc_hd__tapvpwrvgnd_1
XFILLER_0_9_414 vssd1 vssd1 vccd1 vccd1 sky130_fd_sc_hd__decap_6
XTAP_103 vssd1 vccd1 sky130_fd_sc_hd__tapvpwrvgnd_1
XFILLER_0_7_51 vssd1 vssd1 vccd1 vccd1 sky130_fd_sc_hd__decap_4
XFILLER_0_4_141 vssd1 vssd1 vccd1 vccd1 sky130_ef_sc_hd__decap_12
XFILLER_0_0_391 vssd1 vssd1 vccd1 vccd1 sky130_fd_sc_hd__fill_1
X_63_ net64 vssd1 vssd1 vccd1 vccd1 net135 sky130_fd_sc_hd__buf_1
XFILLER_0_4_41 vssd1 vssd1 vccd1 vccd1 sky130_ef_sc_hd__decap_12
XFILLER_0_4_85 vssd1 vssd1 vccd1 vccd1 sky130_ef_sc_hd__decap_12
X_46_ net49 vssd1 vssd1 vccd1 vccd1 net118 sky130_fd_sc_hd__clkbuf_1
XFILLER_0_3_217 vssd1 vssd1 vccd1 vccd1 sky130_fd_sc_hd__decap_6
XFILLER_0_8_309 vssd1 vssd1 vccd1 vccd1 sky130_ef_sc_hd__decap_12
XFILLER_0_1_86 vssd1 vssd1 vccd1 vccd1 sky130_ef_sc_hd__decap_12
X_29_ net28 vssd1 vssd1 vccd1 vccd1 net110 sky130_fd_sc_hd__clkbuf_1
XFILLER_0_8_139 vssd1 vssd1 vccd1 vccd1 sky130_fd_sc_hd__fill_1
XFILLER_0_4_389 vssd1 vssd1 vccd1 vccd1 sky130_ef_sc_hd__decap_12
XFILLER_0_4_345 vssd1 vssd1 vccd1 vccd1 sky130_ef_sc_hd__decap_12
XFILLER_0_4_301 vssd1 vssd1 vccd1 vccd1 sky130_fd_sc_hd__decap_6
Xoutput78 net78 vssd1 vssd1 vccd1 vccd1 FrameStrobe_O[13] sky130_fd_sc_hd__clkbuf_4
Xoutput89 net89 vssd1 vssd1 vccd1 vccd1 FrameStrobe_O[5] sky130_fd_sc_hd__clkbuf_4
XFILLER_0_7_161 vssd1 vssd1 vccd1 vccd1 sky130_fd_sc_hd__decap_6
XTAP_115 vssd1 vccd1 sky130_fd_sc_hd__tapvpwrvgnd_1
XTAP_104 vssd1 vccd1 sky130_fd_sc_hd__tapvpwrvgnd_1
XFILLER_0_4_197 vssd1 vssd1 vccd1 vccd1 sky130_ef_sc_hd__decap_12
XFILLER_0_4_153 vssd1 vssd1 vccd1 vccd1 sky130_ef_sc_hd__decap_12
XFILLER_0_9_223 vssd1 vssd1 vccd1 vccd1 sky130_fd_sc_hd__fill_1
X_62_ net65 vssd1 vssd1 vccd1 vccd1 net134 sky130_fd_sc_hd__buf_1
XFILLER_0_2_421 vssd1 vssd1 vccd1 vccd1 sky130_ef_sc_hd__decap_12
XFILLER_0_5_281 vssd1 vssd1 vccd1 vccd1 sky130_ef_sc_hd__decap_12
XFILLER_0_4_97 vssd1 vssd1 vccd1 vccd1 sky130_ef_sc_hd__decap_12
XFILLER_0_4_53 vssd1 vssd1 vccd1 vccd1 sky130_ef_sc_hd__decap_12
X_45_ net50 vssd1 vssd1 vccd1 vccd1 net117 sky130_fd_sc_hd__clkbuf_1
XFILLER_0_1_98 vssd1 vssd1 vccd1 vccd1 sky130_ef_sc_hd__decap_12
X_28_ net29 vssd1 vssd1 vccd1 vccd1 net109 sky130_fd_sc_hd__clkbuf_1
XFILLER_0_4_357 vssd1 vssd1 vccd1 vccd1 sky130_fd_sc_hd__decap_6
Xoutput79 net79 vssd1 vssd1 vccd1 vccd1 FrameStrobe_O[14] sky130_fd_sc_hd__clkbuf_4
XTAP_105 vssd1 vccd1 sky130_fd_sc_hd__tapvpwrvgnd_1
XFILLER_0_9_449 vssd1 vssd1 vccd1 vccd1 sky130_fd_sc_hd__decap_3
XFILLER_0_9_427 vssd1 vssd1 vccd1 vccd1 sky130_fd_sc_hd__decap_8
XFILLER_0_4_165 vssd1 vssd1 vccd1 vccd1 sky130_ef_sc_hd__decap_12
XFILLER_0_4_121 vssd1 vssd1 vccd1 vccd1 sky130_ef_sc_hd__decap_12
XFILLER_0_6_419 vssd1 vssd1 vccd1 vccd1 sky130_fd_sc_hd__fill_1
XFILLER_0_1_113 vssd1 vssd1 vccd1 vccd1 sky130_ef_sc_hd__decap_12
XFILLER_0_5_441 vssd1 vssd1 vccd1 vccd1 sky130_fd_sc_hd__decap_6
X_61_ net66 vssd1 vssd1 vccd1 vccd1 net133 sky130_fd_sc_hd__buf_1
XFILLER_0_5_293 vssd1 vssd1 vccd1 vccd1 sky130_ef_sc_hd__decap_12
XFILLER_0_2_433 vssd1 vssd1 vccd1 vccd1 sky130_ef_sc_hd__decap_12
XFILLER_0_4_65 vssd1 vssd1 vccd1 vccd1 sky130_ef_sc_hd__decap_12
X_44_ net51 vssd1 vssd1 vccd1 vccd1 net116 sky130_fd_sc_hd__clkbuf_1
XFILLER_0_2_285 vssd1 vssd1 vccd1 vccd1 sky130_fd_sc_hd__decap_4
XFILLER_0_1_55 vssd1 vssd1 vccd1 vccd1 sky130_fd_sc_hd__fill_1
X_27_ net30 vssd1 vssd1 vccd1 vccd1 net108 sky130_fd_sc_hd__clkbuf_1
XFILLER_0_3_391 vssd1 vssd1 vccd1 vccd1 sky130_fd_sc_hd__fill_1
XTAP_106 vssd1 vccd1 sky130_fd_sc_hd__tapvpwrvgnd_1
XFILLER_0_4_177 vssd1 vssd1 vccd1 vccd1 sky130_ef_sc_hd__decap_12
XFILLER_0_4_133 vssd1 vssd1 vccd1 vccd1 sky130_fd_sc_hd__decap_6
XPHY_0 vssd1 vssd1 vccd1 vccd1 sky130_fd_sc_hd__decap_3
XFILLER_0_7_3 vssd1 vssd1 vccd1 vccd1 sky130_ef_sc_hd__decap_12
XFILLER_0_1_169 vssd1 vssd1 vccd1 vccd1 sky130_fd_sc_hd__fill_1
XFILLER_0_1_125 vssd1 vssd1 vccd1 vccd1 sky130_ef_sc_hd__decap_12
XFILLER_0_9_225 vssd1 vssd1 vccd1 vccd1 sky130_fd_sc_hd__decap_6
X_60_ net67 vssd1 vssd1 vccd1 vccd1 net132 sky130_fd_sc_hd__buf_1
XFILLER_0_2_401 vssd1 vssd1 vccd1 vccd1 sky130_ef_sc_hd__decap_12
XFILLER_0_2_445 vssd1 vssd1 vccd1 vccd1 sky130_ef_sc_hd__decap_12
XFILLER_0_4_77 vssd1 vssd1 vccd1 vccd1 sky130_fd_sc_hd__decap_6
XFILLER_0_5_261 vssd1 vssd1 vccd1 vccd1 sky130_ef_sc_hd__decap_12
X_43_ net52 vssd1 vssd1 vccd1 vccd1 net115 sky130_fd_sc_hd__clkbuf_1
X_26_ net31 vssd1 vssd1 vccd1 vccd1 net107 sky130_fd_sc_hd__clkbuf_1
XFILLER_0_8_109 vssd1 vssd1 vccd1 vccd1 sky130_ef_sc_hd__decap_12
X_09_ net8 vssd1 vssd1 vccd1 vccd1 net81 sky130_fd_sc_hd__clkbuf_1
XTAP_107 vssd1 vccd1 sky130_fd_sc_hd__tapvpwrvgnd_1
XPHY_1 vssd1 vssd1 vccd1 vccd1 sky130_fd_sc_hd__decap_3
XFILLER_0_7_55 vssd1 vssd1 vccd1 vccd1 sky130_fd_sc_hd__fill_1
XFILLER_0_4_189 vssd1 vssd1 vccd1 vccd1 sky130_fd_sc_hd__decap_6
XFILLER_0_2_413 vssd1 vssd1 vccd1 vccd1 sky130_fd_sc_hd__decap_6
XFILLER_0_2_457 vssd1 vssd1 vccd1 vccd1 sky130_fd_sc_hd__fill_1
XFILLER_0_5_273 vssd1 vssd1 vccd1 vccd1 sky130_fd_sc_hd__decap_6
X_42_ net53 vssd1 vssd1 vccd1 vccd1 net129 sky130_fd_sc_hd__clkbuf_1
XFILLER_0_7_335 vssd1 vssd1 vccd1 vccd1 sky130_fd_sc_hd__fill_1
XFILLER_0_1_57 vssd1 vssd1 vccd1 vccd1 sky130_fd_sc_hd__fill_2
X_25_ net32 vssd1 vssd1 vccd1 vccd1 net106 sky130_fd_sc_hd__clkbuf_1
X_08_ net7 vssd1 vssd1 vccd1 vccd1 net80 sky130_fd_sc_hd__clkbuf_1
XFILLER_0_3_393 vssd1 vssd1 vccd1 vccd1 sky130_ef_sc_hd__decap_12
XTAP_108 vssd1 vccd1 sky130_fd_sc_hd__tapvpwrvgnd_1
XPHY_2 vssd1 vssd1 vccd1 vccd1 sky130_fd_sc_hd__decap_3
XFILLER_0_9_205 vssd1 vssd1 vccd1 vccd1 sky130_fd_sc_hd__decap_3
X_41_ net54 vssd1 vssd1 vccd1 vccd1 net128 sky130_fd_sc_hd__clkbuf_1
XFILLER_0_2_200 vssd1 vssd1 vccd1 vccd1 sky130_fd_sc_hd__fill_1
XFILLER_0_2_233 vssd1 vssd1 vccd1 vccd1 sky130_fd_sc_hd__fill_1
X_24_ net33 vssd1 vssd1 vccd1 vccd1 net105 sky130_fd_sc_hd__clkbuf_1
X_07_ net6 vssd1 vssd1 vccd1 vccd1 net79 sky130_fd_sc_hd__clkbuf_1
XFILLER_0_9_9 vssd1 vssd1 vccd1 vccd1 sky130_ef_sc_hd__decap_12
XFILLER_0_7_111 vssd1 vssd1 vccd1 vccd1 sky130_fd_sc_hd__fill_1
XFILLER_0_3_361 vssd1 vssd1 vccd1 vccd1 sky130_ef_sc_hd__decap_12
XTAP_109 vssd1 vccd1 sky130_fd_sc_hd__tapvpwrvgnd_1
XFILLER_0_7_57 vssd1 vssd1 vccd1 vccd1 sky130_ef_sc_hd__decap_12
XPHY_3 vssd1 vssd1 vccd1 vccd1 sky130_fd_sc_hd__decap_3
XFILLER_0_9_217 vssd1 vssd1 vccd1 vccd1 sky130_fd_sc_hd__decap_6
XFILLER_0_6_209 vssd1 vssd1 vccd1 vccd1 sky130_ef_sc_hd__decap_12
XFILLER_0_5_3 vssd1 vssd1 vccd1 vccd1 sky130_ef_sc_hd__decap_12
X_40_ net55 vssd1 vssd1 vccd1 vccd1 net127 sky130_fd_sc_hd__clkbuf_1
XFILLER_0_7_337 vssd1 vssd1 vccd1 vccd1 sky130_ef_sc_hd__decap_12
XFILLER_0_1_15 vssd1 vssd1 vccd1 vccd1 sky130_ef_sc_hd__decap_12
X_23_ net34 vssd1 vssd1 vccd1 vccd1 net104 sky130_fd_sc_hd__clkbuf_1
XFILLER_0_4_307 vssd1 vssd1 vccd1 vccd1 sky130_fd_sc_hd__fill_1
XFILLER_0_7_167 vssd1 vssd1 vccd1 vccd1 sky130_fd_sc_hd__fill_1
X_06_ net5 vssd1 vssd1 vccd1 vccd1 net78 sky130_fd_sc_hd__clkbuf_1
XFILLER_0_3_373 vssd1 vssd1 vccd1 vccd1 sky130_ef_sc_hd__decap_12
XFILLER_0_7_69 vssd1 vssd1 vccd1 vccd1 sky130_ef_sc_hd__decap_12
XPHY_4 vssd1 vssd1 vccd1 vccd1 sky130_fd_sc_hd__decap_3
XFILLER_0_8_421 vssd1 vssd1 vccd1 vccd1 sky130_ef_sc_hd__decap_12
XFILLER_0_3_181 vssd1 vssd1 vccd1 vccd1 sky130_ef_sc_hd__decap_12
XFILLER_0_5_457 vssd1 vssd1 vccd1 vccd1 sky130_fd_sc_hd__fill_1
XFILLER_0_4_15 vssd1 vssd1 vccd1 vccd1 sky130_ef_sc_hd__decap_12
XFILLER_0_1_27 vssd1 vssd1 vccd1 vccd1 sky130_ef_sc_hd__decap_12
X_22_ net35 vssd1 vssd1 vccd1 vccd1 net103 sky130_fd_sc_hd__clkbuf_1
XFILLER_0_7_349 vssd1 vssd1 vccd1 vccd1 sky130_ef_sc_hd__decap_12
XFILLER_0_7_305 vssd1 vssd1 vccd1 vccd1 sky130_ef_sc_hd__decap_12
XFILLER_0_7_113 vssd1 vssd1 vccd1 vccd1 sky130_ef_sc_hd__decap_12
X_05_ net4 vssd1 vssd1 vccd1 vccd1 net77 sky130_fd_sc_hd__clkbuf_1
XFILLER_0_3_385 vssd1 vssd1 vccd1 vccd1 sky130_fd_sc_hd__decap_6
XFILLER_0_7_15 vssd1 vssd1 vccd1 vccd1 sky130_ef_sc_hd__decap_12
XPHY_5 vssd1 vssd1 vccd1 vccd1 sky130_fd_sc_hd__decap_3
XFILLER_0_8_433 vssd1 vssd1 vccd1 vccd1 sky130_ef_sc_hd__decap_12
XFILLER_0_3_193 vssd1 vssd1 vccd1 vccd1 sky130_ef_sc_hd__decap_12
XFILLER_0_5_447 vssd1 vssd1 vccd1 vccd1 sky130_fd_sc_hd__fill_1
XFILLER_0_4_27 vssd1 vssd1 vccd1 vccd1 sky130_fd_sc_hd__fill_1
XFILLER_0_9_391 vssd1 vssd1 vccd1 vccd1 sky130_fd_sc_hd__fill_1
XFILLER_0_5_81 vssd1 vssd1 vccd1 vccd1 sky130_ef_sc_hd__decap_12
X_21_ net36 vssd1 vssd1 vccd1 vccd1 net102 sky130_fd_sc_hd__clkbuf_1
XFILLER_0_7_317 vssd1 vssd1 vccd1 vccd1 sky130_ef_sc_hd__decap_12
XFILLER_0_1_39 vssd1 vssd1 vccd1 vccd1 sky130_ef_sc_hd__decap_12
X_04_ net3 vssd1 vssd1 vccd1 vccd1 net76 sky130_fd_sc_hd__clkbuf_1
XFILLER_0_4_309 vssd1 vssd1 vccd1 vccd1 sky130_ef_sc_hd__decap_12
XFILLER_0_7_169 vssd1 vssd1 vccd1 vccd1 sky130_ef_sc_hd__decap_12
XFILLER_0_7_125 vssd1 vssd1 vccd1 vccd1 sky130_ef_sc_hd__decap_12
XFILLER_0_7_27 vssd1 vssd1 vccd1 vccd1 sky130_ef_sc_hd__decap_12
XFILLER_0_4_139 vssd1 vssd1 vccd1 vccd1 sky130_fd_sc_hd__fill_1
XPHY_6 vssd1 vssd1 vccd1 vccd1 sky130_fd_sc_hd__decap_3
XFILLER_0_8_445 vssd1 vssd1 vccd1 vccd1 sky130_ef_sc_hd__decap_12
XFILLER_0_8_401 vssd1 vssd1 vccd1 vccd1 sky130_ef_sc_hd__decap_12
XFILLER_0_3_161 vssd1 vssd1 vccd1 vccd1 sky130_fd_sc_hd__decap_6
XFILLER_0_8_253 vssd1 vssd1 vccd1 vccd1 sky130_ef_sc_hd__decap_12
XFILLER_0_5_223 vssd1 vssd1 vccd1 vccd1 sky130_fd_sc_hd__fill_1
XFILLER_0_1_440 vssd1 vssd1 vccd1 vccd1 sky130_fd_sc_hd__decap_8
XFILLER_0_3_3 vssd1 vssd1 vccd1 vccd1 sky130_ef_sc_hd__decap_12
XFILLER_0_2_237 vssd1 vssd1 vccd1 vccd1 sky130_ef_sc_hd__decap_12
XFILLER_0_2_259 vssd1 vssd1 vccd1 vccd1 sky130_fd_sc_hd__fill_2
XFILLER_0_5_93 vssd1 vssd1 vccd1 vccd1 sky130_ef_sc_hd__decap_12
XFILLER_0_7_329 vssd1 vssd1 vccd1 vccd1 sky130_fd_sc_hd__decap_6
X_20_ net37 vssd1 vssd1 vccd1 vccd1 net101 sky130_fd_sc_hd__clkbuf_1
XTAP_90 vssd1 vccd1 sky130_fd_sc_hd__tapvpwrvgnd_1
Xinput1 FrameStrobe[0] vssd1 vssd1 vccd1 vccd1 net1 sky130_fd_sc_hd__buf_1
X_03_ net2 vssd1 vssd1 vccd1 vccd1 net75 sky130_fd_sc_hd__clkbuf_1
XFILLER_0_7_137 vssd1 vssd1 vccd1 vccd1 sky130_ef_sc_hd__decap_12
XFILLER_0_2_83 vssd1 vssd1 vccd1 vccd1 sky130_fd_sc_hd__fill_1
XPHY_7 vssd1 vssd1 vccd1 vccd1 sky130_fd_sc_hd__decap_3
XFILLER_0_8_457 vssd1 vssd1 vccd1 vccd1 sky130_fd_sc_hd__fill_1
XFILLER_0_8_413 vssd1 vssd1 vccd1 vccd1 sky130_fd_sc_hd__decap_6
XFILLER_0_7_39 vssd1 vssd1 vccd1 vccd1 sky130_ef_sc_hd__decap_12
Xinput70 NN4END[7] vssd1 vssd1 vccd1 vccd1 net70 sky130_fd_sc_hd__clkbuf_1
XFILLER_0_5_449 vssd1 vssd1 vccd1 vccd1 sky130_fd_sc_hd__decap_8
XFILLER_0_5_405 vssd1 vssd1 vccd1 vccd1 sky130_ef_sc_hd__decap_12
XFILLER_0_8_265 vssd1 vssd1 vccd1 vccd1 sky130_ef_sc_hd__decap_12
XFILLER_0_8_221 vssd1 vssd1 vccd1 vccd1 sky130_ef_sc_hd__decap_12
XFILLER_0_2_419 vssd1 vssd1 vccd1 vccd1 sky130_fd_sc_hd__fill_1
XFILLER_0_4_29 vssd1 vssd1 vccd1 vccd1 sky130_ef_sc_hd__decap_12
XFILLER_0_5_279 vssd1 vssd1 vccd1 vccd1 sky130_fd_sc_hd__fill_1
XTAP_91 vssd1 vccd1 sky130_fd_sc_hd__tapvpwrvgnd_1
XFILLER_0_6_363 vssd1 vssd1 vccd1 vccd1 sky130_fd_sc_hd__fill_1
XTAP_80 vssd1 vccd1 sky130_fd_sc_hd__tapvpwrvgnd_1
Xinput2 FrameStrobe[10] vssd1 vssd1 vccd1 vccd1 net2 sky130_fd_sc_hd__buf_1
X_02_ net20 vssd1 vssd1 vccd1 vccd1 net93 sky130_fd_sc_hd__clkbuf_1
XFILLER_0_7_149 vssd1 vssd1 vccd1 vccd1 sky130_ef_sc_hd__decap_12
XFILLER_0_7_105 vssd1 vssd1 vccd1 vccd1 sky130_fd_sc_hd__decap_6
XPHY_8 vssd1 vssd1 vccd1 vccd1 sky130_fd_sc_hd__decap_3
Xinput60 NN4END[12] vssd1 vssd1 vccd1 vccd1 net60 sky130_fd_sc_hd__clkbuf_1
Xinput71 NN4END[8] vssd1 vssd1 vccd1 vccd1 net71 sky130_fd_sc_hd__clkbuf_1
XFILLER_0_5_417 vssd1 vssd1 vccd1 vccd1 sky130_ef_sc_hd__decap_12
XFILLER_0_8_277 vssd1 vssd1 vccd1 vccd1 sky130_ef_sc_hd__decap_12
XFILLER_0_8_83 vssd1 vssd1 vccd1 vccd1 sky130_fd_sc_hd__fill_1
XFILLER_0_5_225 vssd1 vssd1 vccd1 vccd1 sky130_ef_sc_hd__decap_12
XFILLER_0_5_51 vssd1 vssd1 vccd1 vccd1 sky130_fd_sc_hd__decap_4
XTAP_92 vssd1 vccd1 sky130_fd_sc_hd__tapvpwrvgnd_1
XTAP_81 vssd1 vccd1 sky130_fd_sc_hd__tapvpwrvgnd_1
XTAP_70 vssd1 vccd1 sky130_fd_sc_hd__tapvpwrvgnd_1
Xinput3 FrameStrobe[11] vssd1 vssd1 vccd1 vccd1 net3 sky130_fd_sc_hd__buf_1
X_01_ net19 vssd1 vssd1 vccd1 vccd1 net92 sky130_fd_sc_hd__clkbuf_1
XFILLER_0_2_41 vssd1 vssd1 vccd1 vccd1 sky130_ef_sc_hd__decap_12
XFILLER_0_2_85 vssd1 vssd1 vccd1 vccd1 sky130_ef_sc_hd__decap_12
XPHY_9 vssd1 vssd1 vccd1 vccd1 sky130_fd_sc_hd__decap_3
XFILLER_0_4_109 vssd1 vssd1 vccd1 vccd1 sky130_ef_sc_hd__decap_12
Xinput72 NN4END[9] vssd1 vssd1 vccd1 vccd1 net72 sky130_fd_sc_hd__clkbuf_1
Xinput50 N4END[3] vssd1 vssd1 vccd1 vccd1 net50 sky130_fd_sc_hd__buf_1
Xinput61 NN4END[13] vssd1 vssd1 vccd1 vccd1 net61 sky130_fd_sc_hd__clkbuf_1
XFILLER_0_5_429 vssd1 vssd1 vccd1 vccd1 sky130_ef_sc_hd__decap_12
XFILLER_0_8_289 vssd1 vssd1 vccd1 vccd1 sky130_ef_sc_hd__decap_12
XFILLER_0_5_237 vssd1 vssd1 vccd1 vccd1 sky130_ef_sc_hd__decap_12
XFILLER_0_2_207 vssd1 vssd1 vccd1 vccd1 sky130_fd_sc_hd__fill_2
XFILLER_0_1_3 vssd1 vssd1 vccd1 vccd1 sky130_ef_sc_hd__decap_12
XTAP_93 vssd1 vccd1 sky130_fd_sc_hd__tapvpwrvgnd_1
XTAP_82 vssd1 vccd1 sky130_fd_sc_hd__tapvpwrvgnd_1
XTAP_71 vssd1 vccd1 sky130_fd_sc_hd__tapvpwrvgnd_1
Xinput4 FrameStrobe[12] vssd1 vssd1 vccd1 vccd1 net4 sky130_fd_sc_hd__clkbuf_1
XTAP_60 vssd1 vccd1 sky130_fd_sc_hd__tapvpwrvgnd_1
XFILLER_0_9_181 vssd1 vssd1 vccd1 vccd1 sky130_fd_sc_hd__decap_4
XFILLER_0_6_365 vssd1 vssd1 vccd1 vccd1 sky130_ef_sc_hd__decap_12
XFILLER_0_6_321 vssd1 vssd1 vccd1 vccd1 sky130_ef_sc_hd__decap_12
X_00_ net18 vssd1 vssd1 vccd1 vccd1 net91 sky130_fd_sc_hd__clkbuf_1
XFILLER_0_3_335 vssd1 vssd1 vccd1 vccd1 sky130_fd_sc_hd__fill_1
XFILLER_0_6_195 vssd1 vssd1 vccd1 vccd1 sky130_fd_sc_hd__fill_1
XFILLER_0_2_53 vssd1 vssd1 vccd1 vccd1 sky130_ef_sc_hd__decap_12
XFILLER_0_2_97 vssd1 vssd1 vccd1 vccd1 sky130_ef_sc_hd__decap_12
Xinput51 N4END[4] vssd1 vssd1 vccd1 vccd1 net51 sky130_fd_sc_hd__buf_1
Xinput40 N2MID[7] vssd1 vssd1 vccd1 vccd1 net40 sky130_fd_sc_hd__buf_1
Xinput62 NN4END[14] vssd1 vssd1 vccd1 vccd1 net62 sky130_fd_sc_hd__clkbuf_1
Xinput73 UserCLK vssd1 vssd1 vccd1 vccd1 net73 sky130_fd_sc_hd__clkbuf_1
XFILLER_0_8_85 vssd1 vssd1 vccd1 vccd1 sky130_ef_sc_hd__decap_12
XFILLER_0_8_41 vssd1 vssd1 vccd1 vccd1 sky130_ef_sc_hd__decap_12
XFILLER_0_5_205 vssd1 vssd1 vccd1 vccd1 sky130_ef_sc_hd__decap_12
XFILLER_0_5_249 vssd1 vssd1 vccd1 vccd1 sky130_ef_sc_hd__decap_12
XFILLER_0_9_352 vssd1 vssd1 vccd1 vccd1 sky130_ef_sc_hd__decap_12
Xinput5 FrameStrobe[13] vssd1 vssd1 vccd1 vccd1 net5 sky130_fd_sc_hd__clkbuf_1
XTAP_94 vssd1 vccd1 sky130_fd_sc_hd__tapvpwrvgnd_1
XTAP_83 vssd1 vccd1 sky130_fd_sc_hd__tapvpwrvgnd_1
XFILLER_0_6_377 vssd1 vssd1 vccd1 vccd1 sky130_ef_sc_hd__decap_12
XFILLER_0_6_333 vssd1 vssd1 vccd1 vccd1 sky130_ef_sc_hd__decap_12
XTAP_72 vssd1 vccd1 sky130_fd_sc_hd__tapvpwrvgnd_1
XTAP_61 vssd1 vccd1 sky130_fd_sc_hd__tapvpwrvgnd_1
XTAP_50 vssd1 vccd1 sky130_fd_sc_hd__tapvpwrvgnd_1
XFILLER_0_6_141 vssd1 vssd1 vccd1 vccd1 sky130_ef_sc_hd__decap_12
X_59_ net68 vssd1 vssd1 vccd1 vccd1 net131 sky130_fd_sc_hd__buf_1
XFILLER_0_2_65 vssd1 vssd1 vccd1 vccd1 sky130_ef_sc_hd__decap_12
Xinput52 N4END[5] vssd1 vssd1 vccd1 vccd1 net52 sky130_fd_sc_hd__buf_1
Xinput41 N4END[0] vssd1 vssd1 vccd1 vccd1 net41 sky130_fd_sc_hd__buf_1
Xinput30 N2END[5] vssd1 vssd1 vccd1 vccd1 net30 sky130_fd_sc_hd__buf_1
Xinput63 NN4END[15] vssd1 vssd1 vccd1 vccd1 net63 sky130_fd_sc_hd__clkbuf_1
XFILLER_0_3_111 vssd1 vssd1 vccd1 vccd1 sky130_fd_sc_hd__fill_1
XFILLER_0_8_236 vssd1 vssd1 vccd1 vccd1 sky130_ef_sc_hd__decap_12
XFILLER_0_8_97 vssd1 vssd1 vccd1 vccd1 sky130_ef_sc_hd__decap_12
XFILLER_0_8_53 vssd1 vssd1 vccd1 vccd1 sky130_ef_sc_hd__decap_12
XFILLER_0_5_217 vssd1 vssd1 vccd1 vccd1 sky130_fd_sc_hd__decap_6
XFILLER_0_1_412 vssd1 vssd1 vccd1 vccd1 sky130_fd_sc_hd__fill_1
XFILLER_0_9_375 vssd1 vssd1 vccd1 vccd1 sky130_ef_sc_hd__decap_12
XTAP_95 vssd1 vccd1 sky130_fd_sc_hd__tapvpwrvgnd_1
XFILLER_0_6_389 vssd1 vssd1 vccd1 vccd1 sky130_ef_sc_hd__decap_12
XFILLER_0_6_345 vssd1 vssd1 vccd1 vccd1 sky130_ef_sc_hd__decap_12
XTAP_84 vssd1 vccd1 sky130_fd_sc_hd__tapvpwrvgnd_1
XTAP_73 vssd1 vccd1 sky130_fd_sc_hd__tapvpwrvgnd_1
XTAP_62 vssd1 vccd1 sky130_fd_sc_hd__tapvpwrvgnd_1
XTAP_40 vssd1 vccd1 sky130_fd_sc_hd__tapvpwrvgnd_1
Xinput6 FrameStrobe[14] vssd1 vssd1 vccd1 vccd1 net6 sky130_fd_sc_hd__clkbuf_1
XTAP_51 vssd1 vccd1 sky130_fd_sc_hd__tapvpwrvgnd_1
XFILLER_0_9_194 vssd1 vssd1 vccd1 vccd1 sky130_fd_sc_hd__fill_2
X_58_ net69 vssd1 vssd1 vccd1 vccd1 net145 sky130_fd_sc_hd__buf_1
XFILLER_0_2_77 vssd1 vssd1 vccd1 vccd1 sky130_fd_sc_hd__decap_6
XFILLER_0_3_337 vssd1 vssd1 vccd1 vccd1 sky130_ef_sc_hd__decap_12
XFILLER_0_6_197 vssd1 vssd1 vccd1 vccd1 sky130_ef_sc_hd__decap_12
XFILLER_0_6_153 vssd1 vssd1 vccd1 vccd1 sky130_ef_sc_hd__decap_12
Xoutput140 net140 vssd1 vssd1 vccd1 vccd1 SS4BEG[4] sky130_fd_sc_hd__clkbuf_4
Xinput31 N2END[6] vssd1 vssd1 vccd1 vccd1 net31 sky130_fd_sc_hd__buf_1
Xinput20 FrameStrobe[9] vssd1 vssd1 vccd1 vccd1 net20 sky130_fd_sc_hd__buf_1
Xinput64 NN4END[1] vssd1 vssd1 vccd1 vccd1 net64 sky130_fd_sc_hd__clkbuf_1
Xinput42 N4END[10] vssd1 vssd1 vccd1 vccd1 net42 sky130_fd_sc_hd__buf_1
Xinput53 N4END[6] vssd1 vssd1 vccd1 vccd1 net53 sky130_fd_sc_hd__buf_1
XFILLER_0_3_167 vssd1 vssd1 vccd1 vccd1 sky130_fd_sc_hd__fill_1
XFILLER_0_8_248 vssd1 vssd1 vccd1 vccd1 sky130_fd_sc_hd__decap_4
XFILLER_0_8_65 vssd1 vssd1 vccd1 vccd1 sky130_ef_sc_hd__decap_12
XFILLER_0_4_421 vssd1 vssd1 vccd1 vccd1 sky130_ef_sc_hd__decap_12
XFILLER_0_7_281 vssd1 vssd1 vccd1 vccd1 sky130_ef_sc_hd__decap_12
XFILLER_0_1_457 vssd1 vssd1 vccd1 vccd1 sky130_fd_sc_hd__fill_1
XFILLER_0_4_251 vssd1 vssd1 vccd1 vccd1 sky130_fd_sc_hd__fill_1
XFILLER_0_9_387 vssd1 vssd1 vccd1 vccd1 sky130_fd_sc_hd__decap_4
XFILLER_0_9_365 vssd1 vssd1 vccd1 vccd1 sky130_fd_sc_hd__decap_4
XFILLER_0_9_321 vssd1 vssd1 vccd1 vccd1 sky130_fd_sc_hd__fill_2
XFILLER_0_5_55 vssd1 vssd1 vccd1 vccd1 sky130_fd_sc_hd__fill_1
XTAP_96 vssd1 vccd1 sky130_fd_sc_hd__tapvpwrvgnd_1
XFILLER_0_6_357 vssd1 vssd1 vccd1 vccd1 sky130_fd_sc_hd__decap_6
XTAP_85 vssd1 vccd1 sky130_fd_sc_hd__tapvpwrvgnd_1
XTAP_74 vssd1 vccd1 sky130_fd_sc_hd__tapvpwrvgnd_1
XTAP_63 vssd1 vccd1 sky130_fd_sc_hd__tapvpwrvgnd_1
XTAP_30 vssd1 vccd1 sky130_fd_sc_hd__tapvpwrvgnd_1
XTAP_41 vssd1 vccd1 sky130_fd_sc_hd__tapvpwrvgnd_1
Xinput7 FrameStrobe[15] vssd1 vssd1 vccd1 vccd1 net7 sky130_fd_sc_hd__clkbuf_1
XTAP_52 vssd1 vccd1 sky130_fd_sc_hd__tapvpwrvgnd_1
XFILLER_0_3_305 vssd1 vssd1 vccd1 vccd1 sky130_ef_sc_hd__decap_12
XFILLER_0_3_349 vssd1 vssd1 vccd1 vccd1 sky130_ef_sc_hd__decap_12
XFILLER_0_6_165 vssd1 vssd1 vccd1 vccd1 sky130_ef_sc_hd__decap_12
XFILLER_0_6_121 vssd1 vssd1 vccd1 vccd1 sky130_ef_sc_hd__decap_12
X_57_ net70 vssd1 vssd1 vccd1 vccd1 net144 sky130_fd_sc_hd__buf_1
Xoutput130 net130 vssd1 vssd1 vccd1 vccd1 SS4BEG[0] sky130_fd_sc_hd__clkbuf_4
Xoutput141 net141 vssd1 vssd1 vccd1 vccd1 SS4BEG[5] sky130_fd_sc_hd__clkbuf_4
XFILLER_0_8_419 vssd1 vssd1 vccd1 vccd1 sky130_fd_sc_hd__fill_1
XFILLER_0_7_441 vssd1 vssd1 vccd1 vccd1 sky130_fd_sc_hd__decap_6
Xinput65 NN4END[2] vssd1 vssd1 vccd1 vccd1 net65 sky130_fd_sc_hd__clkbuf_1
Xinput43 N4END[11] vssd1 vssd1 vccd1 vccd1 net43 sky130_fd_sc_hd__buf_1
Xinput54 N4END[7] vssd1 vssd1 vccd1 vccd1 net54 sky130_fd_sc_hd__buf_1
Xinput32 N2END[7] vssd1 vssd1 vccd1 vccd1 net32 sky130_fd_sc_hd__buf_1
Xinput21 N1END[0] vssd1 vssd1 vccd1 vccd1 net21 sky130_fd_sc_hd__buf_1
Xinput10 FrameStrobe[18] vssd1 vssd1 vccd1 vccd1 net10 sky130_fd_sc_hd__clkbuf_1
XFILLER_0_3_113 vssd1 vssd1 vccd1 vccd1 sky130_ef_sc_hd__decap_12
XFILLER_0_8_77 vssd1 vssd1 vccd1 vccd1 sky130_fd_sc_hd__decap_6
XFILLER_0_4_433 vssd1 vssd1 vccd1 vccd1 sky130_ef_sc_hd__decap_12
XFILLER_0_7_293 vssd1 vssd1 vccd1 vccd1 sky130_ef_sc_hd__decap_12
XTAP_97 vssd1 vccd1 sky130_fd_sc_hd__tapvpwrvgnd_1
XTAP_86 vssd1 vccd1 sky130_fd_sc_hd__tapvpwrvgnd_1
XTAP_75 vssd1 vccd1 sky130_fd_sc_hd__tapvpwrvgnd_1
XTAP_64 vssd1 vccd1 sky130_fd_sc_hd__tapvpwrvgnd_1
XTAP_20 vssd1 vccd1 sky130_fd_sc_hd__tapvpwrvgnd_1
XTAP_31 vssd1 vccd1 sky130_fd_sc_hd__tapvpwrvgnd_1
XTAP_42 vssd1 vccd1 sky130_fd_sc_hd__tapvpwrvgnd_1
Xinput8 FrameStrobe[16] vssd1 vssd1 vccd1 vccd1 net8 sky130_fd_sc_hd__clkbuf_1
XTAP_53 vssd1 vccd1 sky130_fd_sc_hd__tapvpwrvgnd_1
XFILLER_0_5_391 vssd1 vssd1 vccd1 vccd1 sky130_fd_sc_hd__fill_1
XFILLER_0_3_317 vssd1 vssd1 vccd1 vccd1 sky130_ef_sc_hd__decap_12
XFILLER_0_6_177 vssd1 vssd1 vccd1 vccd1 sky130_ef_sc_hd__decap_12
XFILLER_0_6_133 vssd1 vssd1 vccd1 vccd1 sky130_fd_sc_hd__decap_6
X_56_ net71 vssd1 vssd1 vccd1 vccd1 net143 sky130_fd_sc_hd__buf_1
Xoutput120 net120 vssd1 vssd1 vccd1 vccd1 S4BEG[15] sky130_fd_sc_hd__clkbuf_4
Xoutput142 net142 vssd1 vssd1 vccd1 vccd1 SS4BEG[6] sky130_fd_sc_hd__clkbuf_4
Xoutput131 net131 vssd1 vssd1 vccd1 vccd1 SS4BEG[10] sky130_fd_sc_hd__clkbuf_4
Xinput66 NN4END[3] vssd1 vssd1 vccd1 vccd1 net66 sky130_fd_sc_hd__clkbuf_1
Xinput44 N4END[12] vssd1 vssd1 vccd1 vccd1 net44 sky130_fd_sc_hd__buf_1
Xinput55 N4END[8] vssd1 vssd1 vccd1 vccd1 net55 sky130_fd_sc_hd__buf_1
Xinput33 N2MID[0] vssd1 vssd1 vccd1 vccd1 net33 sky130_fd_sc_hd__buf_1
Xinput22 N1END[1] vssd1 vssd1 vccd1 vccd1 net22 sky130_fd_sc_hd__buf_1
Xinput11 FrameStrobe[19] vssd1 vssd1 vccd1 vccd1 net11 sky130_fd_sc_hd__clkbuf_1
X_39_ net56 vssd1 vssd1 vccd1 vccd1 net126 sky130_fd_sc_hd__clkbuf_1
XFILLER_0_3_125 vssd1 vssd1 vccd1 vccd1 sky130_ef_sc_hd__decap_12
XFILLER_0_3_169 vssd1 vssd1 vccd1 vccd1 sky130_ef_sc_hd__decap_12
XFILLER_0_7_261 vssd1 vssd1 vccd1 vccd1 sky130_ef_sc_hd__decap_12
XFILLER_0_4_445 vssd1 vssd1 vccd1 vccd1 sky130_ef_sc_hd__decap_12
XFILLER_0_4_401 vssd1 vssd1 vccd1 vccd1 sky130_ef_sc_hd__decap_12
XFILLER_0_1_404 vssd1 vssd1 vccd1 vccd1 sky130_fd_sc_hd__decap_8
XFILLER_0_4_253 vssd1 vssd1 vccd1 vccd1 sky130_ef_sc_hd__decap_12
XFILLER_0_5_57 vssd1 vssd1 vccd1 vccd1 sky130_ef_sc_hd__decap_12
XFILLER_0_1_278 vssd1 vssd1 vccd1 vccd1 sky130_fd_sc_hd__fill_2
XFILLER_0_9_345 vssd1 vssd1 vccd1 vccd1 sky130_fd_sc_hd__fill_1
XTAP_98 vssd1 vccd1 sky130_fd_sc_hd__tapvpwrvgnd_1
XTAP_87 vssd1 vccd1 sky130_fd_sc_hd__tapvpwrvgnd_1
XTAP_76 vssd1 vccd1 sky130_fd_sc_hd__tapvpwrvgnd_1
X_72_ net17 vssd1 vssd1 vccd1 vccd1 net90 sky130_fd_sc_hd__clkbuf_1
XTAP_65 vssd1 vccd1 sky130_fd_sc_hd__tapvpwrvgnd_1
XTAP_21 vssd1 vccd1 sky130_fd_sc_hd__tapvpwrvgnd_1
XTAP_32 vssd1 vccd1 sky130_fd_sc_hd__tapvpwrvgnd_1
Xinput9 FrameStrobe[17] vssd1 vssd1 vccd1 vccd1 net9 sky130_fd_sc_hd__clkbuf_1
XTAP_43 vssd1 vccd1 sky130_fd_sc_hd__tapvpwrvgnd_1
XTAP_54 vssd1 vccd1 sky130_fd_sc_hd__tapvpwrvgnd_1
XFILLER_0_9_197 vssd1 vssd1 vccd1 vccd1 sky130_fd_sc_hd__decap_8
XFILLER_0_3_329 vssd1 vssd1 vccd1 vccd1 sky130_fd_sc_hd__decap_6
XFILLER_0_6_189 vssd1 vssd1 vccd1 vccd1 sky130_fd_sc_hd__decap_6
X_55_ net72 vssd1 vssd1 vccd1 vccd1 net142 sky130_fd_sc_hd__buf_1