* NGSPICE file created from RAM_IO.ext - technology: sky130A

* Black-box entry subcircuit for sky130_fd_sc_hd__dfxtp_1 abstract view
.subckt sky130_fd_sc_hd__dfxtp_1 CLK D VGND VNB VPB VPWR Q
.ends

* Black-box entry subcircuit for sky130_fd_sc_hd__tapvpwrvgnd_1 abstract view
.subckt sky130_fd_sc_hd__tapvpwrvgnd_1 VGND VPWR
.ends

* Black-box entry subcircuit for sky130_fd_sc_hd__mux4_2 abstract view
.subckt sky130_fd_sc_hd__mux4_2 A0 A1 A2 A3 S0 S1 VGND VNB VPB VPWR X
.ends

* Black-box entry subcircuit for sky130_fd_sc_hd__o21ai_4 abstract view
.subckt sky130_fd_sc_hd__o21ai_4 A1 A2 B1 VGND VNB VPB VPWR Y
.ends

* Black-box entry subcircuit for sky130_fd_sc_hd__dlxbp_1 abstract view
.subckt sky130_fd_sc_hd__dlxbp_1 D GATE VGND VNB VPB VPWR Q Q_N
.ends

* Black-box entry subcircuit for sky130_fd_sc_hd__fill_1 abstract view
.subckt sky130_fd_sc_hd__fill_1 VGND VNB VPB VPWR
.ends

* Black-box entry subcircuit for sky130_fd_sc_hd__clkbuf_1 abstract view
.subckt sky130_fd_sc_hd__clkbuf_1 A VGND VNB VPB VPWR X
.ends

* Black-box entry subcircuit for sky130_fd_sc_hd__decap_8 abstract view
.subckt sky130_fd_sc_hd__decap_8 VGND VNB VPB VPWR
.ends

* Black-box entry subcircuit for sky130_ef_sc_hd__decap_12 abstract view
.subckt sky130_ef_sc_hd__decap_12 VGND VNB VPB VPWR
.ends

* Black-box entry subcircuit for sky130_fd_sc_hd__nand2_1 abstract view
.subckt sky130_fd_sc_hd__nand2_1 A B VGND VNB VPB VPWR Y
.ends

* Black-box entry subcircuit for sky130_fd_sc_hd__fill_2 abstract view
.subckt sky130_fd_sc_hd__fill_2 VGND VNB VPB VPWR
.ends

* Black-box entry subcircuit for sky130_fd_sc_hd__decap_4 abstract view
.subckt sky130_fd_sc_hd__decap_4 VGND VNB VPB VPWR
.ends

* Black-box entry subcircuit for sky130_fd_sc_hd__clkbuf_4 abstract view
.subckt sky130_fd_sc_hd__clkbuf_4 A VGND VNB VPB VPWR X
.ends

* Black-box entry subcircuit for sky130_fd_sc_hd__buf_2 abstract view
.subckt sky130_fd_sc_hd__buf_2 A VGND VNB VPB VPWR X
.ends

* Black-box entry subcircuit for sky130_fd_sc_hd__decap_6 abstract view
.subckt sky130_fd_sc_hd__decap_6 VGND VNB VPB VPWR
.ends

* Black-box entry subcircuit for sky130_fd_sc_hd__mux4_1 abstract view
.subckt sky130_fd_sc_hd__mux4_1 A0 A1 A2 A3 S0 S1 VGND VNB VPB VPWR X
.ends

* Black-box entry subcircuit for sky130_fd_sc_hd__decap_3 abstract view
.subckt sky130_fd_sc_hd__decap_3 VGND VNB VPB VPWR
.ends

* Black-box entry subcircuit for sky130_fd_sc_hd__diode_2 abstract view
.subckt sky130_fd_sc_hd__diode_2 DIODE VGND VNB VPB VPWR
.ends

* Black-box entry subcircuit for sky130_fd_sc_hd__clkbuf_2 abstract view
.subckt sky130_fd_sc_hd__clkbuf_2 A VGND VNB VPB VPWR X
.ends

* Black-box entry subcircuit for sky130_fd_sc_hd__buf_1 abstract view
.subckt sky130_fd_sc_hd__buf_1 A VGND VNB VPB VPWR X
.ends

* Black-box entry subcircuit for sky130_fd_sc_hd__inv_2 abstract view
.subckt sky130_fd_sc_hd__inv_2 A VGND VNB VPB VPWR Y
.ends

* Black-box entry subcircuit for sky130_fd_sc_hd__o21ai_1 abstract view
.subckt sky130_fd_sc_hd__o21ai_1 A1 A2 B1 VGND VNB VPB VPWR Y
.ends

* Black-box entry subcircuit for sky130_fd_sc_hd__buf_8 abstract view
.subckt sky130_fd_sc_hd__buf_8 A VGND VNB VPB VPWR X
.ends

* Black-box entry subcircuit for sky130_fd_sc_hd__o21ai_2 abstract view
.subckt sky130_fd_sc_hd__o21ai_2 A1 A2 B1 VGND VNB VPB VPWR Y
.ends

* Black-box entry subcircuit for sky130_fd_sc_hd__conb_1 abstract view
.subckt sky130_fd_sc_hd__conb_1 VGND VNB VPB VPWR HI LO
.ends

* Black-box entry subcircuit for sky130_fd_sc_hd__dlymetal6s2s_1 abstract view
.subckt sky130_fd_sc_hd__dlymetal6s2s_1 A VGND VNB VPB VPWR X
.ends

* Black-box entry subcircuit for sky130_fd_sc_hd__buf_4 abstract view
.subckt sky130_fd_sc_hd__buf_4 A VGND VNB VPB VPWR X
.ends

* Black-box entry subcircuit for sky130_fd_sc_hd__clkbuf_8 abstract view
.subckt sky130_fd_sc_hd__clkbuf_8 A VGND VNB VPB VPWR X
.ends

* Black-box entry subcircuit for sky130_fd_sc_hd__clkbuf_16 abstract view
.subckt sky130_fd_sc_hd__clkbuf_16 A VGND VNB VPB VPWR X
.ends

.subckt RAM_IO Config_accessC_bit0 Config_accessC_bit1 Config_accessC_bit2 Config_accessC_bit3
+ E1END[0] E1END[1] E1END[2] E1END[3] E2END[0] E2END[1] E2END[2] E2END[3] E2END[4]
+ E2END[5] E2END[6] E2END[7] E2MID[0] E2MID[1] E2MID[2] E2MID[3] E2MID[4] E2MID[5]
+ E2MID[6] E2MID[7] E6END[0] E6END[10] E6END[11] E6END[1] E6END[2] E6END[3] E6END[4]
+ E6END[5] E6END[6] E6END[7] E6END[8] E6END[9] EE4END[0] EE4END[10] EE4END[11] EE4END[12]
+ EE4END[13] EE4END[14] EE4END[15] EE4END[1] EE4END[2] EE4END[3] EE4END[4] EE4END[5]
+ EE4END[6] EE4END[7] EE4END[8] EE4END[9] FAB2RAM_A0_O0 FAB2RAM_A0_O1 FAB2RAM_A0_O2
+ FAB2RAM_A0_O3 FAB2RAM_A1_O0 FAB2RAM_A1_O1 FAB2RAM_A1_O2 FAB2RAM_A1_O3 FAB2RAM_C_O0
+ FAB2RAM_C_O1 FAB2RAM_C_O2 FAB2RAM_C_O3 FAB2RAM_D0_O0 FAB2RAM_D0_O1 FAB2RAM_D0_O2
+ FAB2RAM_D0_O3 FAB2RAM_D1_O0 FAB2RAM_D1_O1 FAB2RAM_D1_O2 FAB2RAM_D1_O3 FAB2RAM_D2_O0
+ FAB2RAM_D2_O1 FAB2RAM_D2_O2 FAB2RAM_D2_O3 FAB2RAM_D3_O0 FAB2RAM_D3_O1 FAB2RAM_D3_O2
+ FAB2RAM_D3_O3 FrameData[0] FrameData[10] FrameData[11] FrameData[12] FrameData[13]
+ FrameData[14] FrameData[15] FrameData[16] FrameData[17] FrameData[18] FrameData[19]
+ FrameData[1] FrameData[20] FrameData[21] FrameData[22] FrameData[23] FrameData[24]
+ FrameData[25] FrameData[26] FrameData[27] FrameData[28] FrameData[29] FrameData[2]
+ FrameData[30] FrameData[31] FrameData[3] FrameData[4] FrameData[5] FrameData[6]
+ FrameData[7] FrameData[8] FrameData[9] FrameData_O[0] FrameData_O[10] FrameData_O[11]
+ FrameData_O[12] FrameData_O[13] FrameData_O[14] FrameData_O[15] FrameData_O[16]
+ FrameData_O[17] FrameData_O[18] FrameData_O[19] FrameData_O[1] FrameData_O[20] FrameData_O[21]
+ FrameData_O[22] FrameData_O[23] FrameData_O[24] FrameData_O[25] FrameData_O[26]
+ FrameData_O[27] FrameData_O[28] FrameData_O[29] FrameData_O[2] FrameData_O[30] FrameData_O[31]
+ FrameData_O[3] FrameData_O[4] FrameData_O[5] FrameData_O[6] FrameData_O[7] FrameData_O[8]
+ FrameData_O[9] FrameStrobe[0] FrameStrobe[10] FrameStrobe[11] FrameStrobe[12] FrameStrobe[13]
+ FrameStrobe[14] FrameStrobe[15] FrameStrobe[16] FrameStrobe[17] FrameStrobe[18]
+ FrameStrobe[19] FrameStrobe[1] FrameStrobe[2] FrameStrobe[3] FrameStrobe[4] FrameStrobe[5]
+ FrameStrobe[6] FrameStrobe[7] FrameStrobe[8] FrameStrobe[9] FrameStrobe_O[0] FrameStrobe_O[10]
+ FrameStrobe_O[11] FrameStrobe_O[12] FrameStrobe_O[13] FrameStrobe_O[14] FrameStrobe_O[15]
+ FrameStrobe_O[16] FrameStrobe_O[17] FrameStrobe_O[18] FrameStrobe_O[19] FrameStrobe_O[1]
+ FrameStrobe_O[2] FrameStrobe_O[3] FrameStrobe_O[4] FrameStrobe_O[5] FrameStrobe_O[6]
+ FrameStrobe_O[7] FrameStrobe_O[8] FrameStrobe_O[9] N1BEG[0] N1BEG[1] N1BEG[2] N1BEG[3]
+ N1END[0] N1END[1] N1END[2] N1END[3] N2BEG[0] N2BEG[1] N2BEG[2] N2BEG[3] N2BEG[4]
+ N2BEG[5] N2BEG[6] N2BEG[7] N2BEGb[0] N2BEGb[1] N2BEGb[2] N2BEGb[3] N2BEGb[4] N2BEGb[5]
+ N2BEGb[6] N2BEGb[7] N2END[0] N2END[1] N2END[2] N2END[3] N2END[4] N2END[5] N2END[6]
+ N2END[7] N2MID[0] N2MID[1] N2MID[2] N2MID[3] N2MID[4] N2MID[5] N2MID[6] N2MID[7]
+ N4BEG[0] N4BEG[10] N4BEG[11] N4BEG[12] N4BEG[13] N4BEG[14] N4BEG[15] N4BEG[1] N4BEG[2]
+ N4BEG[3] N4BEG[4] N4BEG[5] N4BEG[6] N4BEG[7] N4BEG[8] N4BEG[9] N4END[0] N4END[10]
+ N4END[11] N4END[12] N4END[13] N4END[14] N4END[15] N4END[1] N4END[2] N4END[3] N4END[4]
+ N4END[5] N4END[6] N4END[7] N4END[8] N4END[9] RAM2FAB_D0_I0 RAM2FAB_D0_I1 RAM2FAB_D0_I2
+ RAM2FAB_D0_I3 RAM2FAB_D1_I0 RAM2FAB_D1_I1 RAM2FAB_D1_I2 RAM2FAB_D1_I3 RAM2FAB_D2_I0
+ RAM2FAB_D2_I1 RAM2FAB_D2_I2 RAM2FAB_D2_I3 RAM2FAB_D3_I0 RAM2FAB_D3_I1 RAM2FAB_D3_I2
+ RAM2FAB_D3_I3 S1BEG[0] S1BEG[1] S1BEG[2] S1BEG[3] S1END[0] S1END[1] S1END[2] S1END[3]
+ S2BEG[0] S2BEG[1] S2BEG[2] S2BEG[3] S2BEG[4] S2BEG[5] S2BEG[6] S2BEG[7] S2BEGb[0]
+ S2BEGb[1] S2BEGb[2] S2BEGb[3] S2BEGb[4] S2BEGb[5] S2BEGb[6] S2BEGb[7] S2END[0] S2END[1]
+ S2END[2] S2END[3] S2END[4] S2END[5] S2END[6] S2END[7] S2MID[0] S2MID[1] S2MID[2]
+ S2MID[3] S2MID[4] S2MID[5] S2MID[6] S2MID[7] S4BEG[0] S4BEG[10] S4BEG[11] S4BEG[12]
+ S4BEG[13] S4BEG[14] S4BEG[15] S4BEG[1] S4BEG[2] S4BEG[3] S4BEG[4] S4BEG[5] S4BEG[6]
+ S4BEG[7] S4BEG[8] S4BEG[9] S4END[0] S4END[10] S4END[11] S4END[12] S4END[13] S4END[14]
+ S4END[15] S4END[1] S4END[2] S4END[3] S4END[4] S4END[5] S4END[6] S4END[7] S4END[8]
+ S4END[9] UserCLK UserCLKo VGND VPWR W1BEG[0] W1BEG[1] W1BEG[2] W1BEG[3] W2BEG[0]
+ W2BEG[1] W2BEG[2] W2BEG[3] W2BEG[4] W2BEG[5] W2BEG[6] W2BEG[7] W2BEGb[0] W2BEGb[1]
+ W2BEGb[2] W2BEGb[3] W2BEGb[4] W2BEGb[5] W2BEGb[6] W2BEGb[7] W6BEG[0] W6BEG[10] W6BEG[11]
+ W6BEG[1] W6BEG[2] W6BEG[3] W6BEG[4] W6BEG[5] W6BEG[6] W6BEG[7] W6BEG[8] W6BEG[9]
+ WW4BEG[0] WW4BEG[10] WW4BEG[11] WW4BEG[12] WW4BEG[13] WW4BEG[14] WW4BEG[15] WW4BEG[1]
+ WW4BEG[2] WW4BEG[3] WW4BEG[4] WW4BEG[5] WW4BEG[6] WW4BEG[7] WW4BEG[8] WW4BEG[9]
XInst_FAB2RAM_D2_OutPass4_frame_config_mux._2_ UserCLK Inst_FAB2RAM_D2_OutPass4_frame_config_mux.I\[2\]
+ VGND VGND VPWR VPWR Inst_FAB2RAM_D2_OutPass4_frame_config_mux.Q\[2\] sky130_fd_sc_hd__dfxtp_1
XTAP_177 VGND VPWR sky130_fd_sc_hd__tapvpwrvgnd_1
XTAP_188 VGND VPWR sky130_fd_sc_hd__tapvpwrvgnd_1
XTAP_199 VGND VPWR sky130_fd_sc_hd__tapvpwrvgnd_1
XInst_RAM_IO_switch_matrix.inst_cus_mux41_buf_N1BEG0 net1 net27 Inst_RAM_IO_switch_matrix.J_NS4_BEG12
+ Inst_RAM_IO_switch_matrix.J_NS1_BEG0 Inst_RAM_IO_ConfigMem.ConfigBits\[48\] Inst_RAM_IO_ConfigMem.ConfigBits\[49\]
+ VGND VGND VPWR VPWR Inst_RAM_IO_switch_matrix.N1BEG0 sky130_fd_sc_hd__mux4_2
XInst_RAM_IO_switch_matrix.inst_cus_mux81_buf_S4BEG2.cus_mux21_inst._4_ Inst_RAM_IO_ConfigMem.ConfigBits\[116\]
+ Inst_RAM_IO_switch_matrix.inst_cus_mux81_buf_S4BEG2.cus_mux21_inst._0_ Inst_RAM_IO_switch_matrix.inst_cus_mux81_buf_S4BEG2.cus_mux21_inst._1_
+ VGND VGND VPWR VPWR Inst_RAM_IO_switch_matrix.S4BEG2 sky130_fd_sc_hd__o21ai_4
XInst_RAM_IO_ConfigMem.Inst_frame6_bit3 net74 net97 VGND VGND VPWR VPWR Inst_RAM_IO_ConfigMem.ConfigBits\[107\]
+ Inst_RAM_IO_ConfigMem.Inst_frame6_bit3/Q_N sky130_fd_sc_hd__dlxbp_1
XFILLER_0_67_144 VGND VGND VPWR VPWR sky130_fd_sc_hd__fill_1
Xstrobe_outbuf_12._0_ strobe_inbuf_12.X VGND VGND VPWR VPWR strobe_outbuf_12.X sky130_fd_sc_hd__clkbuf_1
XFILLER_0_2_108 VGND VGND VPWR VPWR sky130_fd_sc_hd__fill_1
Xdata_outbuf_7._0_ data_inbuf_7.X VGND VGND VPWR VPWR data_outbuf_7.X sky130_fd_sc_hd__clkbuf_1
XInst_RAM_IO_switch_matrix.inst_cus_mux41_buf_J_NS4_BEG3 net104 net130 net156 net182
+ Inst_RAM_IO_ConfigMem.ConfigBits\[278\] Inst_RAM_IO_ConfigMem.ConfigBits\[279\]
+ VGND VGND VPWR VPWR Inst_RAM_IO_switch_matrix.J_NS4_BEG3 sky130_fd_sc_hd__mux4_2
XFILLER_0_64_58 VGND VGND VPWR VPWR sky130_fd_sc_hd__fill_1
XFILLER_0_58_100 VGND VGND VPWR VPWR sky130_fd_sc_hd__decap_8
XFILLER_0_73_125 VGND VGND VPWR VPWR sky130_ef_sc_hd__decap_12
XInst_RAM_IO_ConfigMem.Inst_frame2_bit29 net70 net93 VGND VGND VPWR VPWR Inst_RAM_IO_ConfigMem.ConfigBits\[261\]
+ Inst_RAM_IO_ConfigMem.Inst_frame2_bit29/Q_N sky130_fd_sc_hd__dlxbp_1
XInst_RAM_IO_ConfigMem.Inst_frame2_bit18 net58 net93 VGND VGND VPWR VPWR Inst_RAM_IO_ConfigMem.ConfigBits\[250\]
+ Inst_RAM_IO_ConfigMem.Inst_frame2_bit18/Q_N sky130_fd_sc_hd__dlxbp_1
XInst_FAB2RAM_D2_OutPass4_frame_config_mux.cus_mux21_inst1.break_comb_loop_inst1._0_
+ Inst_FAB2RAM_D2_OutPass4_frame_config_mux.Q\[1\] VGND VGND VPWR VPWR Inst_FAB2RAM_D2_OutPass4_frame_config_mux.cus_mux21_inst1.AIN\[1\]
+ sky130_fd_sc_hd__clkbuf_1
XInst_FAB2RAM_A0_OutPass4_frame_config_mux.cus_mux21_inst3._3_ Inst_FAB2RAM_A0_OutPass4_frame_config_mux.cus_mux21_inst3.AIN\[1\]
+ Inst_FAB2RAM_A0_OutPass4_frame_config_mux.ConfigBits\[3\] VGND VGND VPWR VPWR Inst_FAB2RAM_A0_OutPass4_frame_config_mux.cus_mux21_inst3._1_
+ sky130_fd_sc_hd__nand2_1
XFILLER_0_49_100 VGND VGND VPWR VPWR sky130_ef_sc_hd__decap_12
XFILLER_0_64_125 VGND VGND VPWR VPWR sky130_ef_sc_hd__decap_12
XInst_RAM_IO_switch_matrix.inst_cus_mux81_buf_S4BEG1.cus_mux21_inst.break_comb_loop_inst0._0_
+ Inst_RAM_IO_switch_matrix.inst_cus_mux81_buf_S4BEG1.cus_mux21_inst.A0 VGND VGND
+ VPWR VPWR Inst_RAM_IO_switch_matrix.inst_cus_mux81_buf_S4BEG1.cus_mux21_inst.AIN\[0\]
+ sky130_fd_sc_hd__clkbuf_1
XFILLER_0_70_139 VGND VGND VPWR VPWR sky130_fd_sc_hd__fill_1
XFILLER_0_75_57 VGND VGND VPWR VPWR sky130_fd_sc_hd__fill_2
XFILLER_0_38_9 VGND VGND VPWR VPWR sky130_fd_sc_hd__fill_1
XFILLER_0_24_50 VGND VGND VPWR VPWR sky130_fd_sc_hd__decap_4
XInst_FAB2RAM_D0_OutPass4_frame_config_mux.cus_mux21_inst1.break_comb_loop_inst0._0_
+ Inst_FAB2RAM_D0_OutPass4_frame_config_mux.I\[1\] VGND VGND VPWR VPWR Inst_FAB2RAM_D0_OutPass4_frame_config_mux.cus_mux21_inst1.AIN\[0\]
+ sky130_fd_sc_hd__clkbuf_1
Xoutput242 net242 VGND VGND VPWR VPWR FrameData_O[29] sky130_fd_sc_hd__clkbuf_4
Xoutput264 net264 VGND VGND VPWR VPWR FrameStrobe_O[1] sky130_fd_sc_hd__clkbuf_4
Xoutput253 net253 VGND VGND VPWR VPWR FrameStrobe_O[0] sky130_fd_sc_hd__buf_2
Xoutput275 net275 VGND VGND VPWR VPWR N1BEG[2] sky130_fd_sc_hd__clkbuf_4
Xoutput286 net286 VGND VGND VPWR VPWR N2BEGb[1] sky130_fd_sc_hd__buf_2
Xoutput231 net231 VGND VGND VPWR VPWR FrameData_O[19] sky130_fd_sc_hd__clkbuf_4
XInst_RAM_IO_ConfigMem.Inst_frame3_bit6 net77 net94 VGND VGND VPWR VPWR Inst_RAM_IO_ConfigMem.ConfigBits\[206\]
+ Inst_RAM_IO_ConfigMem.Inst_frame3_bit6/Q_N sky130_fd_sc_hd__dlxbp_1
Xoutput220 net220 VGND VGND VPWR VPWR FAB2RAM_D3_O3 sky130_fd_sc_hd__clkbuf_4
XFILLER_0_40_82 VGND VGND VPWR VPWR sky130_fd_sc_hd__fill_2
Xoutput297 net297 VGND VGND VPWR VPWR N4BEG[13] sky130_fd_sc_hd__clkbuf_4
XInst_FAB2RAM_D0_OutPass4_frame_config_mux.cus_mux21_inst1._3_ Inst_FAB2RAM_D0_OutPass4_frame_config_mux.cus_mux21_inst1.AIN\[1\]
+ Inst_FAB2RAM_D0_OutPass4_frame_config_mux.ConfigBits\[1\] VGND VGND VPWR VPWR Inst_FAB2RAM_D0_OutPass4_frame_config_mux.cus_mux21_inst1._1_
+ sky130_fd_sc_hd__nand2_1
X_062_ Inst_RAM_IO_switch_matrix.N2BEG6 VGND VGND VPWR VPWR net283 sky130_fd_sc_hd__clkbuf_1
X_131_ Inst_RAM_IO_switch_matrix.W2BEG3 VGND VGND VPWR VPWR net353 sky130_fd_sc_hd__clkbuf_1
XFILLER_0_37_169 VGND VGND VPWR VPWR sky130_fd_sc_hd__decap_6
XInst_FAB2RAM_A1_OutPass4_frame_config_mux._1_ UserCLK Inst_FAB2RAM_A1_OutPass4_frame_config_mux.I\[1\]
+ VGND VGND VPWR VPWR Inst_FAB2RAM_A1_OutPass4_frame_config_mux.Q\[1\] sky130_fd_sc_hd__dfxtp_1
XInst_RAM_IO_ConfigMem.Inst_frame1_bit28 net69 net92 VGND VGND VPWR VPWR Inst_RAM_IO_ConfigMem.ConfigBits\[292\]
+ Inst_RAM_IO_ConfigMem.Inst_frame1_bit28/Q_N sky130_fd_sc_hd__dlxbp_1
XInst_RAM_IO_ConfigMem.Inst_frame1_bit17 net57 net92 VGND VGND VPWR VPWR Inst_RAM_IO_ConfigMem.ConfigBits\[281\]
+ Inst_RAM_IO_ConfigMem.Inst_frame1_bit17/Q_N sky130_fd_sc_hd__dlxbp_1
XInst_FAB2RAM_D2_OutPass4_frame_config_mux.cus_mux21_inst2._3_ Inst_FAB2RAM_D2_OutPass4_frame_config_mux.cus_mux21_inst2.AIN\[1\]
+ Inst_FAB2RAM_D2_OutPass4_frame_config_mux.ConfigBits\[2\] VGND VGND VPWR VPWR Inst_FAB2RAM_D2_OutPass4_frame_config_mux.cus_mux21_inst2._1_
+ sky130_fd_sc_hd__nand2_1
XFILLER_0_51_161 VGND VGND VPWR VPWR sky130_fd_sc_hd__decap_6
XFILLER_0_10_85 VGND VGND VPWR VPWR sky130_fd_sc_hd__fill_1
XFILLER_0_19_169 VGND VGND VPWR VPWR sky130_fd_sc_hd__fill_1
XInst_FAB2RAM_D2_OutPass4_frame_config_mux.cus_mux21_inst2.break_comb_loop_inst0._0_
+ Inst_FAB2RAM_D2_OutPass4_frame_config_mux.I\[2\] VGND VGND VPWR VPWR Inst_FAB2RAM_D2_OutPass4_frame_config_mux.cus_mux21_inst2.AIN\[0\]
+ sky130_fd_sc_hd__clkbuf_1
X_045_ strobe_outbuf_13.X VGND VGND VPWR VPWR net257 sky130_fd_sc_hd__clkbuf_1
X_114_ S4BEG_outbuf_6.X VGND VGND VPWR VPWR net341 sky130_fd_sc_hd__clkbuf_1
XFILLER_0_33_194 VGND VGND VPWR VPWR sky130_fd_sc_hd__decap_4
XInst_RAM_IO_switch_matrix.inst_cus_mux41_buf_FAB2RAM_A1_I0 net17 net9 Inst_RAM_IO_switch_matrix.J_NS2_BEG4
+ net399 Inst_RAM_IO_ConfigMem.ConfigBits\[256\] Inst_RAM_IO_ConfigMem.ConfigBits\[257\]
+ VGND VGND VPWR VPWR Inst_FAB2RAM_A1_OutPass4_frame_config_mux.I\[0\] sky130_fd_sc_hd__mux4_1
XFILLER_0_16_128 VGND VGND VPWR VPWR sky130_ef_sc_hd__decap_12
XInst_RAM_IO_ConfigMem.Inst_frame0_bit9 net80 net81 VGND VGND VPWR VPWR Inst_RAM_IO_ConfigMem.ConfigBits\[305\]
+ Inst_RAM_IO_ConfigMem.Inst_frame0_bit9/Q_N sky130_fd_sc_hd__dlxbp_1
XFILLER_0_46_81 VGND VGND VPWR VPWR sky130_fd_sc_hd__decap_3
XInst_RAM_IO_ConfigMem.Inst_frame0_bit27 net68 net81 VGND VGND VPWR VPWR Inst_RAM_IO_ConfigMem.ConfigBits\[323\]
+ Inst_RAM_IO_ConfigMem.Inst_frame0_bit27/Q_N sky130_fd_sc_hd__dlxbp_1
XInst_RAM_IO_ConfigMem.Inst_frame0_bit16 net56 net81 VGND VGND VPWR VPWR Inst_RAM_IO_ConfigMem.ConfigBits\[312\]
+ Inst_RAM_IO_ConfigMem.Inst_frame0_bit16/Q_N sky130_fd_sc_hd__dlxbp_1
XInst_RAM_IO_ConfigMem.Inst_frame9_bit1 net60 net100 VGND VGND VPWR VPWR Inst_RAM2FAB_D2_InPass4_frame_config_mux.ConfigBits\[1\]
+ Inst_RAM_IO_ConfigMem.Inst_frame9_bit1/Q_N sky130_fd_sc_hd__dlxbp_1
XFILLER_0_30_120 VGND VGND VPWR VPWR sky130_fd_sc_hd__fill_1
XANTENNA_5 N4BEG_outbuf_5.A VGND VGND VPWR VPWR sky130_fd_sc_hd__diode_2
X_028_ data_outbuf_28.X VGND VGND VPWR VPWR net241 sky130_fd_sc_hd__clkbuf_1
XTAP_348 VGND VPWR sky130_fd_sc_hd__tapvpwrvgnd_1
XTAP_337 VGND VPWR sky130_fd_sc_hd__tapvpwrvgnd_1
XTAP_326 VGND VPWR sky130_fd_sc_hd__tapvpwrvgnd_1
XTAP_315 VGND VPWR sky130_fd_sc_hd__tapvpwrvgnd_1
XFILLER_0_21_164 VGND VGND VPWR VPWR sky130_fd_sc_hd__fill_1
XTAP_304 VGND VPWR sky130_fd_sc_hd__tapvpwrvgnd_1
Xstrobe_outbuf_7._0_ strobe_inbuf_7.X VGND VGND VPWR VPWR strobe_outbuf_7.X sky130_fd_sc_hd__clkbuf_1
XTAP_359 VGND VPWR sky130_fd_sc_hd__tapvpwrvgnd_1
XInst_RAM_IO_ConfigMem.Inst_frame10_bit27 net68 net82 VGND VGND VPWR VPWR Inst_RAM2FAB_D0_InPass4_frame_config_mux.ConfigBits\[3\]
+ Inst_RAM_IO_ConfigMem.Inst_frame10_bit27/Q_N sky130_fd_sc_hd__dlxbp_1
XFILLER_0_57_80 VGND VGND VPWR VPWR sky130_fd_sc_hd__decap_6
Xdata_inbuf_1._0_ net60 VGND VGND VPWR VPWR data_inbuf_1.X sky130_fd_sc_hd__clkbuf_1
Xinput153 S1END[0] VGND VGND VPWR VPWR net153 sky130_fd_sc_hd__buf_2
Xinput186 S4END[7] VGND VGND VPWR VPWR net186 sky130_fd_sc_hd__clkbuf_1
Xinput164 S2END[7] VGND VGND VPWR VPWR net164 sky130_fd_sc_hd__clkbuf_1
Xinput175 S4END[11] VGND VGND VPWR VPWR net175 sky130_fd_sc_hd__clkbuf_1
Xinput120 N2MID[7] VGND VGND VPWR VPWR net120 sky130_fd_sc_hd__clkbuf_2
Xinput131 N4END[4] VGND VGND VPWR VPWR net131 sky130_fd_sc_hd__clkbuf_1
Xinput142 RAM2FAB_D1_I1 VGND VGND VPWR VPWR net142 sky130_fd_sc_hd__buf_1
XInst_RAM_IO_switch_matrix.inst_cus_mux41_buf_W2BEG4 Inst_RAM2FAB_D1_InPass4_frame_config_mux.O\[0\]
+ Inst_RAM2FAB_D3_InPass4_frame_config_mux.O\[0\] Inst_RAM_IO_switch_matrix.J_NS2_BEG3
+ Inst_RAM_IO_switch_matrix.J_NS2_BEG4 Inst_RAM_IO_ConfigMem.ConfigBits\[136\] Inst_RAM_IO_ConfigMem.ConfigBits\[137\]
+ VGND VGND VPWR VPWR Inst_RAM_IO_switch_matrix.W2BEG4 sky130_fd_sc_hd__mux4_1
XFILLER_0_68_9 VGND VGND VPWR VPWR sky130_fd_sc_hd__decap_4
XTAP_178 VGND VPWR sky130_fd_sc_hd__tapvpwrvgnd_1
XTAP_167 VGND VPWR sky130_fd_sc_hd__tapvpwrvgnd_1
XTAP_156 VGND VPWR sky130_fd_sc_hd__tapvpwrvgnd_1
XTAP_189 VGND VPWR sky130_fd_sc_hd__tapvpwrvgnd_1
XInst_RAM2FAB_D0_InPass4_frame_config_mux._2_ UserCLK net139 VGND VGND VPWR VPWR Inst_RAM2FAB_D0_InPass4_frame_config_mux.Q\[2\]
+ sky130_fd_sc_hd__dfxtp_1
XInst_FAB2RAM_D2_OutPass4_frame_config_mux._1_ UserCLK Inst_FAB2RAM_D2_OutPass4_frame_config_mux.I\[1\]
+ VGND VGND VPWR VPWR Inst_FAB2RAM_D2_OutPass4_frame_config_mux.Q\[1\] sky130_fd_sc_hd__dfxtp_1
XInst_RAM_IO_switch_matrix.inst_cus_mux41_buf_N1BEG1 net2 net28 Inst_RAM_IO_switch_matrix.J_NS4_BEG13
+ Inst_RAM_IO_switch_matrix.J_NS1_BEG1 Inst_RAM_IO_ConfigMem.ConfigBits\[50\] Inst_RAM_IO_ConfigMem.ConfigBits\[51\]
+ VGND VGND VPWR VPWR Inst_RAM_IO_switch_matrix.N1BEG1 sky130_fd_sc_hd__mux4_1
XInst_RAM_IO_switch_matrix.inst_cus_mux81_buf_S4BEG2.cus_mux21_inst._3_ Inst_RAM_IO_switch_matrix.inst_cus_mux81_buf_S4BEG2.cus_mux21_inst.AIN\[1\]
+ Inst_RAM_IO_ConfigMem.ConfigBits\[116\] VGND VGND VPWR VPWR Inst_RAM_IO_switch_matrix.inst_cus_mux81_buf_S4BEG2.cus_mux21_inst._1_
+ sky130_fd_sc_hd__nand2_1
XFILLER_0_4_194 VGND VGND VPWR VPWR sky130_fd_sc_hd__fill_2
XInst_FAB2RAM_A0_OutPass4_frame_config_mux.cus_mux21_inst2.break_comb_loop_inst1._0_
+ Inst_FAB2RAM_A0_OutPass4_frame_config_mux.Q\[2\] VGND VGND VPWR VPWR Inst_FAB2RAM_A0_OutPass4_frame_config_mux.cus_mux21_inst2.AIN\[1\]
+ sky130_fd_sc_hd__clkbuf_1
XInst_RAM_IO_ConfigMem.Inst_frame6_bit4 net75 net97 VGND VGND VPWR VPWR Inst_RAM_IO_ConfigMem.ConfigBits\[108\]
+ Inst_RAM_IO_ConfigMem.Inst_frame6_bit4/Q_N sky130_fd_sc_hd__dlxbp_1
XFILLER_0_67_167 VGND VGND VPWR VPWR sky130_fd_sc_hd__fill_1
XInst_RAM_IO_switch_matrix.inst_cus_mux41_buf_J_NS4_BEG4 net101 net121 net153 net173
+ Inst_RAM_IO_ConfigMem.ConfigBits\[280\] Inst_RAM_IO_ConfigMem.ConfigBits\[281\]
+ VGND VGND VPWR VPWR Inst_RAM_IO_switch_matrix.J_NS4_BEG4 sky130_fd_sc_hd__mux4_2
XFILLER_0_64_26 VGND VGND VPWR VPWR sky130_fd_sc_hd__fill_2
XInst_RAM_IO_ConfigMem.Inst_frame2_bit19 net59 net93 VGND VGND VPWR VPWR Inst_RAM_IO_ConfigMem.ConfigBits\[251\]
+ Inst_RAM_IO_ConfigMem.Inst_frame2_bit19/Q_N sky130_fd_sc_hd__dlxbp_1
XFILLER_0_73_137 VGND VGND VPWR VPWR sky130_fd_sc_hd__decap_4
XInst_FAB2RAM_A0_OutPass4_frame_config_mux.cus_mux21_inst3._2_ Inst_FAB2RAM_A0_OutPass4_frame_config_mux.cus_mux21_inst3.AIN\[0\]
+ VGND VGND VPWR VPWR Inst_FAB2RAM_A0_OutPass4_frame_config_mux.cus_mux21_inst3._0_
+ sky130_fd_sc_hd__inv_2
XInst_FAB2RAM_C_OutPass4_frame_config_mux.cus_mux21_inst0._4_ Inst_FAB2RAM_C_OutPass4_frame_config_mux.ConfigBits\[0\]
+ Inst_FAB2RAM_C_OutPass4_frame_config_mux.cus_mux21_inst0._0_ Inst_FAB2RAM_C_OutPass4_frame_config_mux.cus_mux21_inst0._1_
+ VGND VGND VPWR VPWR net201 sky130_fd_sc_hd__o21ai_1
XN4END_inbuf_7._0_ net123 VGND VGND VPWR VPWR N4BEG_outbuf_7.A sky130_fd_sc_hd__clkbuf_2
XFILLER_0_49_134 VGND VGND VPWR VPWR sky130_fd_sc_hd__decap_8
XFILLER_0_34_29 VGND VGND VPWR VPWR sky130_fd_sc_hd__fill_1
XFILLER_0_75_69 VGND VGND VPWR VPWR sky130_fd_sc_hd__fill_2
XInst_RAM2FAB_D1_InPass4_frame_config_mux.cus_mux21_inst1.break_comb_loop_inst1._0_
+ Inst_RAM2FAB_D1_InPass4_frame_config_mux.Q\[1\] VGND VGND VPWR VPWR Inst_RAM2FAB_D1_InPass4_frame_config_mux.cus_mux21_inst1.AIN\[1\]
+ sky130_fd_sc_hd__clkbuf_1
Xoutput254 net254 VGND VGND VPWR VPWR FrameStrobe_O[10] sky130_fd_sc_hd__clkbuf_4
Xoutput265 net265 VGND VGND VPWR VPWR FrameStrobe_O[2] sky130_fd_sc_hd__clkbuf_4
Xoutput298 net298 VGND VGND VPWR VPWR N4BEG[14] sky130_fd_sc_hd__clkbuf_4
Xoutput287 net287 VGND VGND VPWR VPWR N2BEGb[2] sky130_fd_sc_hd__clkbuf_4
Xoutput276 net276 VGND VGND VPWR VPWR N1BEG[3] sky130_fd_sc_hd__clkbuf_4
XInst_FAB2RAM_D0_OutPass4_frame_config_mux.cus_mux21_inst1._2_ Inst_FAB2RAM_D0_OutPass4_frame_config_mux.cus_mux21_inst1.AIN\[0\]
+ VGND VGND VPWR VPWR Inst_FAB2RAM_D0_OutPass4_frame_config_mux.cus_mux21_inst1._0_
+ sky130_fd_sc_hd__inv_2
XFILLER_0_64_3 VGND VGND VPWR VPWR sky130_fd_sc_hd__fill_2
Xoutput243 net243 VGND VGND VPWR VPWR FrameData_O[2] sky130_fd_sc_hd__clkbuf_4
XFILLER_0_49_81 VGND VGND VPWR VPWR sky130_fd_sc_hd__decap_4
Xoutput232 net232 VGND VGND VPWR VPWR FrameData_O[1] sky130_fd_sc_hd__clkbuf_4
Xoutput221 net221 VGND VGND VPWR VPWR FrameData_O[0] sky130_fd_sc_hd__clkbuf_4
XInst_RAM_IO_ConfigMem.Inst_frame3_bit7 net78 net94 VGND VGND VPWR VPWR Inst_RAM_IO_ConfigMem.ConfigBits\[207\]
+ Inst_RAM_IO_ConfigMem.Inst_frame3_bit7/Q_N sky130_fd_sc_hd__dlxbp_1
Xoutput210 net210 VGND VGND VPWR VPWR FAB2RAM_D1_O1 sky130_fd_sc_hd__clkbuf_4
X_130_ Inst_RAM_IO_switch_matrix.W2BEG2 VGND VGND VPWR VPWR net352 sky130_fd_sc_hd__clkbuf_1
X_061_ Inst_RAM_IO_switch_matrix.N2BEG5 VGND VGND VPWR VPWR net282 sky130_fd_sc_hd__clkbuf_1
XInst_RAM_IO_ConfigMem.Inst_frame1_bit18 net58 net92 VGND VGND VPWR VPWR Inst_RAM_IO_ConfigMem.ConfigBits\[282\]
+ Inst_RAM_IO_ConfigMem.Inst_frame1_bit18/Q_N sky130_fd_sc_hd__dlxbp_1
XInst_FAB2RAM_A1_OutPass4_frame_config_mux._0_ UserCLK Inst_FAB2RAM_A1_OutPass4_frame_config_mux.I\[0\]
+ VGND VGND VPWR VPWR Inst_FAB2RAM_A1_OutPass4_frame_config_mux.Q\[0\] sky130_fd_sc_hd__dfxtp_1
XInst_RAM_IO_ConfigMem.Inst_frame1_bit29 net70 net92 VGND VGND VPWR VPWR Inst_RAM_IO_ConfigMem.ConfigBits\[293\]
+ Inst_RAM_IO_ConfigMem.Inst_frame1_bit29/Q_N sky130_fd_sc_hd__dlxbp_1
XInst_FAB2RAM_D2_OutPass4_frame_config_mux.cus_mux21_inst2._2_ Inst_FAB2RAM_D2_OutPass4_frame_config_mux.cus_mux21_inst2.AIN\[0\]
+ VGND VGND VPWR VPWR Inst_FAB2RAM_D2_OutPass4_frame_config_mux.cus_mux21_inst2._0_
+ sky130_fd_sc_hd__inv_2
XInst_FAB2RAM_A0_OutPass4_frame_config_mux.cus_mux21_inst3.break_comb_loop_inst0._0_
+ Inst_FAB2RAM_A0_OutPass4_frame_config_mux.I\[3\] VGND VGND VPWR VPWR Inst_FAB2RAM_A0_OutPass4_frame_config_mux.cus_mux21_inst3.AIN\[0\]
+ sky130_fd_sc_hd__clkbuf_1
XFILLER_0_43_107 VGND VGND VPWR VPWR sky130_fd_sc_hd__decap_4
XFILLER_0_10_97 VGND VGND VPWR VPWR sky130_fd_sc_hd__fill_1
XFILLER_0_42_195 VGND VGND VPWR VPWR sky130_fd_sc_hd__fill_1
X_113_ S4BEG_outbuf_5.X VGND VGND VPWR VPWR net340 sky130_fd_sc_hd__clkbuf_1
X_044_ strobe_outbuf_12.X VGND VGND VPWR VPWR net256 sky130_fd_sc_hd__clkbuf_1
XInst_RAM_IO_switch_matrix.inst_cus_mux41_buf_FAB2RAM_A1_I1 net18 net10 Inst_RAM_IO_switch_matrix.J_NS2_BEG5
+ net400 Inst_RAM_IO_ConfigMem.ConfigBits\[258\] Inst_RAM_IO_ConfigMem.ConfigBits\[259\]
+ VGND VGND VPWR VPWR Inst_FAB2RAM_A1_OutPass4_frame_config_mux.I\[1\] sky130_fd_sc_hd__mux4_2
XFILLER_0_21_63 VGND VGND VPWR VPWR sky130_fd_sc_hd__decap_4
XInst_RAM_IO_ConfigMem.Inst_frame0_bit17 net57 net81 VGND VGND VPWR VPWR Inst_RAM_IO_ConfigMem.ConfigBits\[313\]
+ Inst_RAM_IO_ConfigMem.Inst_frame0_bit17/Q_N sky130_fd_sc_hd__dlxbp_1
XInst_RAM_IO_ConfigMem.Inst_frame9_bit2 net71 net100 VGND VGND VPWR VPWR Inst_RAM2FAB_D2_InPass4_frame_config_mux.ConfigBits\[2\]
+ Inst_RAM_IO_ConfigMem.Inst_frame9_bit2/Q_N sky130_fd_sc_hd__dlxbp_1
XInst_RAM_IO_ConfigMem.Inst_frame0_bit28 net69 net81 VGND VGND VPWR VPWR Inst_RAM_IO_ConfigMem.ConfigBits\[324\]
+ Inst_RAM_IO_ConfigMem.Inst_frame0_bit28/Q_N sky130_fd_sc_hd__dlxbp_1
XInst_RAM2FAB_D1_InPass4_frame_config_mux.cus_mux21_inst2.break_comb_loop_inst0._0_
+ net143 VGND VGND VPWR VPWR Inst_RAM2FAB_D1_InPass4_frame_config_mux.cus_mux21_inst2.AIN\[0\]
+ sky130_fd_sc_hd__clkbuf_1
Xdata_outbuf_10._0_ data_inbuf_10.X VGND VGND VPWR VPWR data_outbuf_10.X sky130_fd_sc_hd__clkbuf_1
XANTENNA_6 RAM2FAB_D0_I1 VGND VGND VPWR VPWR sky130_fd_sc_hd__diode_2
X_027_ data_outbuf_27.X VGND VGND VPWR VPWR net240 sky130_fd_sc_hd__clkbuf_1
XFILLER_0_67_15 VGND VGND VPWR VPWR sky130_fd_sc_hd__fill_2
XTAP_349 VGND VPWR sky130_fd_sc_hd__tapvpwrvgnd_1
XTAP_338 VGND VPWR sky130_fd_sc_hd__tapvpwrvgnd_1
XTAP_327 VGND VPWR sky130_fd_sc_hd__tapvpwrvgnd_1
XTAP_316 VGND VPWR sky130_fd_sc_hd__tapvpwrvgnd_1
XTAP_305 VGND VPWR sky130_fd_sc_hd__tapvpwrvgnd_1
XFILLER_0_16_85 VGND VGND VPWR VPWR sky130_fd_sc_hd__decap_6
XFILLER_0_8_115 VGND VGND VPWR VPWR sky130_fd_sc_hd__fill_2
XInst_RAM_IO_ConfigMem.Inst_frame10_bit28 net69 net82 VGND VGND VPWR VPWR Inst_RAM2FAB_D1_InPass4_frame_config_mux.ConfigBits\[0\]
+ Inst_RAM_IO_ConfigMem.Inst_frame10_bit28/Q_N sky130_fd_sc_hd__dlxbp_1
XInst_FAB2RAM_A1_OutPass4_frame_config_mux.cus_mux21_inst0._4_ Inst_FAB2RAM_A1_OutPass4_frame_config_mux.ConfigBits\[0\]
+ Inst_FAB2RAM_A1_OutPass4_frame_config_mux.cus_mux21_inst0._0_ Inst_FAB2RAM_A1_OutPass4_frame_config_mux.cus_mux21_inst0._1_
+ VGND VGND VPWR VPWR net197 sky130_fd_sc_hd__o21ai_1
Xinput110 N2END[5] VGND VGND VPWR VPWR net110 sky130_fd_sc_hd__buf_1
Xinput187 S4END[8] VGND VGND VPWR VPWR net187 sky130_fd_sc_hd__clkbuf_1
Xinput165 S2MID[0] VGND VGND VPWR VPWR net165 sky130_fd_sc_hd__buf_1
Xinput154 S1END[1] VGND VGND VPWR VPWR net154 sky130_fd_sc_hd__buf_2
Xinput176 S4END[12] VGND VGND VPWR VPWR net176 sky130_fd_sc_hd__clkbuf_1
Xinput143 RAM2FAB_D1_I2 VGND VGND VPWR VPWR net143 sky130_fd_sc_hd__buf_1
Xinput132 N4END[5] VGND VGND VPWR VPWR net132 sky130_fd_sc_hd__clkbuf_1
Xinput121 N4END[0] VGND VGND VPWR VPWR net121 sky130_fd_sc_hd__clkbuf_2
XFILLER_0_5_129 VGND VGND VPWR VPWR sky130_fd_sc_hd__fill_2
XInst_RAM_IO_switch_matrix.inst_cus_mux41_buf_W2BEG5 Inst_RAM2FAB_D1_InPass4_frame_config_mux.O\[1\]
+ Inst_RAM2FAB_D3_InPass4_frame_config_mux.O\[1\] Inst_RAM_IO_switch_matrix.J_NS2_BEG2
+ Inst_RAM_IO_switch_matrix.J_NS2_BEG5 Inst_RAM_IO_ConfigMem.ConfigBits\[138\] Inst_RAM_IO_ConfigMem.ConfigBits\[139\]
+ VGND VGND VPWR VPWR Inst_RAM_IO_switch_matrix.W2BEG5 sky130_fd_sc_hd__mux4_1
XInst_FAB2RAM_D2_OutPass4_frame_config_mux._0_ UserCLK Inst_FAB2RAM_D2_OutPass4_frame_config_mux.I\[0\]
+ VGND VGND VPWR VPWR Inst_FAB2RAM_D2_OutPass4_frame_config_mux.Q\[0\] sky130_fd_sc_hd__dfxtp_1
XInst_RAM_IO_switch_matrix.inst_cus_mux41_buf_N1BEG2 net3 net29 Inst_RAM_IO_switch_matrix.J_NS4_BEG14
+ Inst_RAM_IO_switch_matrix.J_NS1_BEG2 Inst_RAM_IO_ConfigMem.ConfigBits\[52\] Inst_RAM_IO_ConfigMem.ConfigBits\[53\]
+ VGND VGND VPWR VPWR Inst_RAM_IO_switch_matrix.N1BEG2 sky130_fd_sc_hd__mux4_1
XTAP_179 VGND VPWR sky130_fd_sc_hd__tapvpwrvgnd_1
XTAP_168 VGND VPWR sky130_fd_sc_hd__tapvpwrvgnd_1
XTAP_157 VGND VPWR sky130_fd_sc_hd__tapvpwrvgnd_1
XInst_RAM2FAB_D0_InPass4_frame_config_mux._1_ UserCLK net138 VGND VGND VPWR VPWR Inst_RAM2FAB_D0_InPass4_frame_config_mux.Q\[1\]
+ sky130_fd_sc_hd__dfxtp_1
XInst_RAM_IO_switch_matrix.inst_cus_mux41_buf_FAB2RAM_C_I0 net1 net21 Inst_RAM_IO_switch_matrix.J_NS1_BEG0
+ net403 Inst_RAM_IO_ConfigMem.ConfigBits\[264\] Inst_RAM_IO_ConfigMem.ConfigBits\[265\]
+ VGND VGND VPWR VPWR Inst_FAB2RAM_C_OutPass4_frame_config_mux.I\[0\] sky130_fd_sc_hd__mux4_1
XInst_RAM_IO_switch_matrix.inst_cus_mux81_buf_S4BEG2.cus_mux21_inst._2_ Inst_RAM_IO_switch_matrix.inst_cus_mux81_buf_S4BEG2.cus_mux21_inst.AIN\[0\]
+ VGND VGND VPWR VPWR Inst_RAM_IO_switch_matrix.inst_cus_mux81_buf_S4BEG2.cus_mux21_inst._0_
+ sky130_fd_sc_hd__inv_2
XInst_RAM_IO_switch_matrix.inst_cus_mux81_buf_S4BEG1.cus_mux41_buf_inst0 net2 net37
+ net28 Inst_RAM_IO_switch_matrix.J_NS4_BEG1 Inst_RAM_IO_ConfigMem.ConfigBits\[111\]
+ Inst_RAM_IO_ConfigMem.ConfigBits\[112\] VGND VGND VPWR VPWR Inst_RAM_IO_switch_matrix.inst_cus_mux81_buf_S4BEG1.cus_mux21_inst.A0
+ sky130_fd_sc_hd__mux4_1
XFILLER_0_43_72 VGND VGND VPWR VPWR sky130_fd_sc_hd__fill_2
XInst_RAM_IO_ConfigMem.Inst_frame6_bit5 net76 net97 VGND VGND VPWR VPWR Inst_RAM_IO_ConfigMem.ConfigBits\[109\]
+ Inst_RAM_IO_ConfigMem.Inst_frame6_bit5/Q_N sky130_fd_sc_hd__dlxbp_1
XInst_RAM_IO_switch_matrix.inst_cus_mux41_buf_J_NS4_BEG5 net102 net128 net154 net180