* NGSPICE file created from RAM_IO.ext - technology: sky130A

* Black-box entry subcircuit for sky130_fd_sc_hd__mux4_1 abstract view
.subckt sky130_fd_sc_hd__mux4_1 A0 A1 A2 A3 S0 S1 VGND VNB VPB VPWR X
.ends

* Black-box entry subcircuit for sky130_fd_sc_hd__tapvpwrvgnd_1 abstract view
.subckt sky130_fd_sc_hd__tapvpwrvgnd_1 VGND VPWR
.ends

* Black-box entry subcircuit for sky130_fd_sc_hd__decap_8 abstract view
.subckt sky130_fd_sc_hd__decap_8 VGND VNB VPB VPWR
.ends

* Black-box entry subcircuit for sky130_fd_sc_hd__decap_4 abstract view
.subckt sky130_fd_sc_hd__decap_4 VGND VNB VPB VPWR
.ends

* Black-box entry subcircuit for sky130_ef_sc_hd__decap_12 abstract view
.subckt sky130_ef_sc_hd__decap_12 VGND VNB VPB VPWR
.ends

* Black-box entry subcircuit for sky130_fd_sc_hd__decap_3 abstract view
.subckt sky130_fd_sc_hd__decap_3 VGND VNB VPB VPWR
.ends

* Black-box entry subcircuit for sky130_fd_sc_hd__fill_2 abstract view
.subckt sky130_fd_sc_hd__fill_2 VGND VNB VPB VPWR
.ends

* Black-box entry subcircuit for sky130_fd_sc_hd__fill_1 abstract view
.subckt sky130_fd_sc_hd__fill_1 VGND VNB VPB VPWR
.ends

* Black-box entry subcircuit for sky130_fd_sc_hd__conb_1 abstract view
.subckt sky130_fd_sc_hd__conb_1 VGND VNB VPB VPWR HI LO
.ends

* Black-box entry subcircuit for sky130_fd_sc_hd__nand2_1 abstract view
.subckt sky130_fd_sc_hd__nand2_1 A B VGND VNB VPB VPWR Y
.ends

* Black-box entry subcircuit for sky130_fd_sc_hd__clkbuf_1 abstract view
.subckt sky130_fd_sc_hd__clkbuf_1 A VGND VNB VPB VPWR X
.ends

* Black-box entry subcircuit for sky130_fd_sc_hd__mux4_2 abstract view
.subckt sky130_fd_sc_hd__mux4_2 A0 A1 A2 A3 S0 S1 VGND VNB VPB VPWR X
.ends

* Black-box entry subcircuit for sky130_fd_sc_hd__clkbuf_2 abstract view
.subckt sky130_fd_sc_hd__clkbuf_2 A VGND VNB VPB VPWR X
.ends

* Black-box entry subcircuit for sky130_fd_sc_hd__decap_6 abstract view
.subckt sky130_fd_sc_hd__decap_6 VGND VNB VPB VPWR
.ends

* Black-box entry subcircuit for sky130_fd_sc_hd__dlxbp_1 abstract view
.subckt sky130_fd_sc_hd__dlxbp_1 D GATE VGND VNB VPB VPWR Q Q_N
.ends

* Black-box entry subcircuit for sky130_fd_sc_hd__clkbuf_4 abstract view
.subckt sky130_fd_sc_hd__clkbuf_4 A VGND VNB VPB VPWR X
.ends

* Black-box entry subcircuit for sky130_fd_sc_hd__buf_2 abstract view
.subckt sky130_fd_sc_hd__buf_2 A VGND VNB VPB VPWR X
.ends

* Black-box entry subcircuit for sky130_fd_sc_hd__diode_2 abstract view
.subckt sky130_fd_sc_hd__diode_2 DIODE VGND VNB VPB VPWR
.ends

* Black-box entry subcircuit for sky130_fd_sc_hd__buf_1 abstract view
.subckt sky130_fd_sc_hd__buf_1 A VGND VNB VPB VPWR X
.ends

* Black-box entry subcircuit for sky130_fd_sc_hd__inv_2 abstract view
.subckt sky130_fd_sc_hd__inv_2 A VGND VNB VPB VPWR Y
.ends

* Black-box entry subcircuit for sky130_fd_sc_hd__dfxtp_1 abstract view
.subckt sky130_fd_sc_hd__dfxtp_1 CLK D VGND VNB VPB VPWR Q
.ends

* Black-box entry subcircuit for sky130_fd_sc_hd__o21ai_1 abstract view
.subckt sky130_fd_sc_hd__o21ai_1 A1 A2 B1 VGND VNB VPB VPWR Y
.ends

* Black-box entry subcircuit for sky130_fd_sc_hd__dlymetal6s2s_1 abstract view
.subckt sky130_fd_sc_hd__dlymetal6s2s_1 A VGND VNB VPB VPWR X
.ends

* Black-box entry subcircuit for sky130_fd_sc_hd__buf_8 abstract view
.subckt sky130_fd_sc_hd__buf_8 A VGND VNB VPB VPWR X
.ends

* Black-box entry subcircuit for sky130_fd_sc_hd__o21ai_2 abstract view
.subckt sky130_fd_sc_hd__o21ai_2 A1 A2 B1 VGND VNB VPB VPWR Y
.ends

* Black-box entry subcircuit for sky130_fd_sc_hd__o21ai_4 abstract view
.subckt sky130_fd_sc_hd__o21ai_4 A1 A2 B1 VGND VNB VPB VPWR Y
.ends

* Black-box entry subcircuit for sky130_fd_sc_hd__buf_4 abstract view
.subckt sky130_fd_sc_hd__buf_4 A VGND VNB VPB VPWR X
.ends

* Black-box entry subcircuit for sky130_fd_sc_hd__clkbuf_16 abstract view
.subckt sky130_fd_sc_hd__clkbuf_16 A VGND VNB VPB VPWR X
.ends

* Black-box entry subcircuit for sky130_fd_sc_hd__clkbuf_8 abstract view
.subckt sky130_fd_sc_hd__clkbuf_8 A VGND VNB VPB VPWR X
.ends

.subckt RAM_IO Config_accessC_bit0 Config_accessC_bit1 Config_accessC_bit2 Config_accessC_bit3
+ E1END[0] E1END[1] E1END[2] E1END[3] E2END[0] E2END[1] E2END[2] E2END[3] E2END[4]
+ E2END[5] E2END[6] E2END[7] E2MID[0] E2MID[1] E2MID[2] E2MID[3] E2MID[4] E2MID[5]
+ E2MID[6] E2MID[7] E6END[0] E6END[10] E6END[11] E6END[1] E6END[2] E6END[3] E6END[4]
+ E6END[5] E6END[6] E6END[7] E6END[8] E6END[9] EE4END[0] EE4END[10] EE4END[11] EE4END[12]
+ EE4END[13] EE4END[14] EE4END[15] EE4END[1] EE4END[2] EE4END[3] EE4END[4] EE4END[5]
+ EE4END[6] EE4END[7] EE4END[8] EE4END[9] FAB2RAM_A0_O0 FAB2RAM_A0_O1 FAB2RAM_A0_O2
+ FAB2RAM_A0_O3 FAB2RAM_A1_O0 FAB2RAM_A1_O1 FAB2RAM_A1_O2 FAB2RAM_A1_O3 FAB2RAM_C_O0
+ FAB2RAM_C_O1 FAB2RAM_C_O2 FAB2RAM_C_O3 FAB2RAM_D0_O0 FAB2RAM_D0_O1 FAB2RAM_D0_O2
+ FAB2RAM_D0_O3 FAB2RAM_D1_O0 FAB2RAM_D1_O1 FAB2RAM_D1_O2 FAB2RAM_D1_O3 FAB2RAM_D2_O0
+ FAB2RAM_D2_O1 FAB2RAM_D2_O2 FAB2RAM_D2_O3 FAB2RAM_D3_O0 FAB2RAM_D3_O1 FAB2RAM_D3_O2
+ FAB2RAM_D3_O3 FrameData[0] FrameData[10] FrameData[11] FrameData[12] FrameData[13]
+ FrameData[14] FrameData[15] FrameData[16] FrameData[17] FrameData[18] FrameData[19]
+ FrameData[1] FrameData[20] FrameData[21] FrameData[22] FrameData[23] FrameData[24]
+ FrameData[25] FrameData[26] FrameData[27] FrameData[28] FrameData[29] FrameData[2]
+ FrameData[30] FrameData[31] FrameData[3] FrameData[4] FrameData[5] FrameData[6]
+ FrameData[7] FrameData[8] FrameData[9] FrameData_O[0] FrameData_O[10] FrameData_O[11]
+ FrameData_O[12] FrameData_O[13] FrameData_O[14] FrameData_O[15] FrameData_O[16]
+ FrameData_O[17] FrameData_O[18] FrameData_O[19] FrameData_O[1] FrameData_O[20] FrameData_O[21]
+ FrameData_O[22] FrameData_O[23] FrameData_O[24] FrameData_O[25] FrameData_O[26]
+ FrameData_O[27] FrameData_O[28] FrameData_O[29] FrameData_O[2] FrameData_O[30] FrameData_O[31]
+ FrameData_O[3] FrameData_O[4] FrameData_O[5] FrameData_O[6] FrameData_O[7] FrameData_O[8]
+ FrameData_O[9] FrameStrobe[0] FrameStrobe[10] FrameStrobe[11] FrameStrobe[12] FrameStrobe[13]
+ FrameStrobe[14] FrameStrobe[15] FrameStrobe[16] FrameStrobe[17] FrameStrobe[18]
+ FrameStrobe[19] FrameStrobe[1] FrameStrobe[2] FrameStrobe[3] FrameStrobe[4] FrameStrobe[5]
+ FrameStrobe[6] FrameStrobe[7] FrameStrobe[8] FrameStrobe[9] FrameStrobe_O[0] FrameStrobe_O[10]
+ FrameStrobe_O[11] FrameStrobe_O[12] FrameStrobe_O[13] FrameStrobe_O[14] FrameStrobe_O[15]
+ FrameStrobe_O[16] FrameStrobe_O[17] FrameStrobe_O[18] FrameStrobe_O[19] FrameStrobe_O[1]
+ FrameStrobe_O[2] FrameStrobe_O[3] FrameStrobe_O[4] FrameStrobe_O[5] FrameStrobe_O[6]
+ FrameStrobe_O[7] FrameStrobe_O[8] FrameStrobe_O[9] N1BEG[0] N1BEG[1] N1BEG[2] N1BEG[3]
+ N1END[0] N1END[1] N1END[2] N1END[3] N2BEG[0] N2BEG[1] N2BEG[2] N2BEG[3] N2BEG[4]
+ N2BEG[5] N2BEG[6] N2BEG[7] N2BEGb[0] N2BEGb[1] N2BEGb[2] N2BEGb[3] N2BEGb[4] N2BEGb[5]
+ N2BEGb[6] N2BEGb[7] N2END[0] N2END[1] N2END[2] N2END[3] N2END[4] N2END[5] N2END[6]
+ N2END[7] N2MID[0] N2MID[1] N2MID[2] N2MID[3] N2MID[4] N2MID[5] N2MID[6] N2MID[7]
+ N4BEG[0] N4BEG[10] N4BEG[11] N4BEG[12] N4BEG[13] N4BEG[14] N4BEG[15] N4BEG[1] N4BEG[2]
+ N4BEG[3] N4BEG[4] N4BEG[5] N4BEG[6] N4BEG[7] N4BEG[8] N4BEG[9] N4END[0] N4END[10]
+ N4END[11] N4END[12] N4END[13] N4END[14] N4END[15] N4END[1] N4END[2] N4END[3] N4END[4]
+ N4END[5] N4END[6] N4END[7] N4END[8] N4END[9] RAM2FAB_D0_I0 RAM2FAB_D0_I1 RAM2FAB_D0_I2
+ RAM2FAB_D0_I3 RAM2FAB_D1_I0 RAM2FAB_D1_I1 RAM2FAB_D1_I2 RAM2FAB_D1_I3 RAM2FAB_D2_I0
+ RAM2FAB_D2_I1 RAM2FAB_D2_I2 RAM2FAB_D2_I3 RAM2FAB_D3_I0 RAM2FAB_D3_I1 RAM2FAB_D3_I2
+ RAM2FAB_D3_I3 S1BEG[0] S1BEG[1] S1BEG[2] S1BEG[3] S1END[0] S1END[1] S1END[2] S1END[3]
+ S2BEG[0] S2BEG[1] S2BEG[2] S2BEG[3] S2BEG[4] S2BEG[5] S2BEG[6] S2BEG[7] S2BEGb[0]
+ S2BEGb[1] S2BEGb[2] S2BEGb[3] S2BEGb[4] S2BEGb[5] S2BEGb[6] S2BEGb[7] S2END[0] S2END[1]
+ S2END[2] S2END[3] S2END[4] S2END[5] S2END[6] S2END[7] S2MID[0] S2MID[1] S2MID[2]
+ S2MID[3] S2MID[4] S2MID[5] S2MID[6] S2MID[7] S4BEG[0] S4BEG[10] S4BEG[11] S4BEG[12]
+ S4BEG[13] S4BEG[14] S4BEG[15] S4BEG[1] S4BEG[2] S4BEG[3] S4BEG[4] S4BEG[5] S4BEG[6]
+ S4BEG[7] S4BEG[8] S4BEG[9] S4END[0] S4END[10] S4END[11] S4END[12] S4END[13] S4END[14]
+ S4END[15] S4END[1] S4END[2] S4END[3] S4END[4] S4END[5] S4END[6] S4END[7] S4END[8]
+ S4END[9] UserCLK UserCLKo VGND VPWR W1BEG[0] W1BEG[1] W1BEG[2] W1BEG[3] W2BEG[0]
+ W2BEG[1] W2BEG[2] W2BEG[3] W2BEG[4] W2BEG[5] W2BEG[6] W2BEG[7] W2BEGb[0] W2BEGb[1]
+ W2BEGb[2] W2BEGb[3] W2BEGb[4] W2BEGb[5] W2BEGb[6] W2BEGb[7] W6BEG[0] W6BEG[10] W6BEG[11]
+ W6BEG[1] W6BEG[2] W6BEG[3] W6BEG[4] W6BEG[5] W6BEG[6] W6BEG[7] W6BEG[8] W6BEG[9]
+ WW4BEG[0] WW4BEG[10] WW4BEG[11] WW4BEG[12] WW4BEG[13] WW4BEG[14] WW4BEG[15] WW4BEG[1]
+ WW4BEG[2] WW4BEG[3] WW4BEG[4] WW4BEG[5] WW4BEG[6] WW4BEG[7] WW4BEG[8] WW4BEG[9]
XInst_RAM_IO_switch_matrix_inst_cus_mux41_buf_FAB2RAM_D1_I3 net46 net39 net30 J_NS4_BEG\[7\]
+ ConfigBits\[230\] ConfigBits\[231\] VGND VGND VPWR VPWR FAB2RAM_D1_I3 sky130_fd_sc_hd__mux4_1
XTAP_188 VGND VPWR sky130_fd_sc_hd__tapvpwrvgnd_1
XTAP_177 VGND VPWR sky130_fd_sc_hd__tapvpwrvgnd_1
XTAP_199 VGND VPWR sky130_fd_sc_hd__tapvpwrvgnd_1
XFILLER_0_76_155 VGND VGND VPWR VPWR sky130_fd_sc_hd__decap_8
XFILLER_0_32_203 VGND VGND VPWR VPWR sky130_fd_sc_hd__decap_4
XFILLER_0_32_214 VGND VGND VPWR VPWR sky130_ef_sc_hd__decap_12
XFILLER_0_23_225 VGND VGND VPWR VPWR sky130_fd_sc_hd__decap_3
XFILLER_0_48_26 VGND VGND VPWR VPWR sky130_fd_sc_hd__fill_2
XFILLER_0_3_39 VGND VGND VPWR VPWR sky130_fd_sc_hd__fill_2
XFILLER_0_3_17 VGND VGND VPWR VPWR sky130_fd_sc_hd__fill_1
XInst_RAM_IO_switch_matrix_inst_cus_mux41_buf_FAB2RAM_A0_I1_396 VGND VGND VPWR VPWR
+ Inst_RAM_IO_switch_matrix_inst_cus_mux41_buf_FAB2RAM_A0_I1_396/HI net396 sky130_fd_sc_hd__conb_1
XFILLER_0_73_169 VGND VGND VPWR VPWR sky130_ef_sc_hd__decap_12
XFILLER_0_73_125 VGND VGND VPWR VPWR sky130_ef_sc_hd__decap_12
XFILLER_0_58_177 VGND VGND VPWR VPWR sky130_ef_sc_hd__decap_12
XFILLER_0_58_122 VGND VGND VPWR VPWR sky130_fd_sc_hd__fill_2
XFILLER_0_13_51 VGND VGND VPWR VPWR sky130_fd_sc_hd__decap_4
XInst_FAB2RAM_D0_OutPass4_frame_config_mux_cus_mux21_inst0__3_ Inst_FAB2RAM_D0_OutPass4_frame_config_mux_cus_mux21_inst0__3_/A
+ ConfigBits\[16\] VGND VGND VPWR VPWR Inst_FAB2RAM_D0_OutPass4_frame_config_mux_cus_mux21_inst0__3_/Y
+ sky130_fd_sc_hd__nand2_1
XN4BEG_outbuf_11__0_ N4BEG_i\[11\] VGND VGND VPWR VPWR net295 sky130_fd_sc_hd__clkbuf_1
XFILLER_0_49_100 VGND VGND VPWR VPWR sky130_fd_sc_hd__fill_1
XFILLER_0_72_191 VGND VGND VPWR VPWR sky130_fd_sc_hd__decap_4
XInst_RAM_IO_switch_matrix_inst_cus_mux41_buf_J_NS1_BEG1_407 VGND VGND VPWR VPWR Inst_RAM_IO_switch_matrix_inst_cus_mux41_buf_J_NS1_BEG1_407/HI
+ net407 sky130_fd_sc_hd__conb_1
XFILLER_0_49_177 VGND VGND VPWR VPWR sky130_fd_sc_hd__decap_3
XInst_FAB2RAM_D2_OutPass4_frame_config_mux_cus_mux21_inst1__3_ Inst_FAB2RAM_D2_OutPass4_frame_config_mux_cus_mux21_inst1__3_/A
+ ConfigBits\[25\] VGND VGND VPWR VPWR Inst_FAB2RAM_D2_OutPass4_frame_config_mux_cus_mux21_inst1__3_/Y
+ sky130_fd_sc_hd__nand2_1
XInst_RAM_IO_switch_matrix_inst_cus_mux41_buf_J_NS2_BEG6 net119 net111 net171 net163
+ ConfigBits\[316\] ConfigBits\[317\] VGND VGND VPWR VPWR J_NS2_BEG\[6\] sky130_fd_sc_hd__mux4_2
XS4END_inbuf_9__0_ net177 VGND VGND VPWR VPWR S4BEG_i\[9\] sky130_fd_sc_hd__clkbuf_2
XFILLER_0_55_169 VGND VGND VPWR VPWR sky130_fd_sc_hd__decap_6
XInst_RAM_IO_ConfigMem_Inst_frame1_bit8 net79 net92 VGND VGND VPWR VPWR ConfigBits\[272\]
+ Inst_RAM_IO_ConfigMem_Inst_frame1_bit8/Q_N sky130_fd_sc_hd__dlxbp_1
XFILLER_0_75_57 VGND VGND VPWR VPWR sky130_fd_sc_hd__fill_1
XFILLER_0_59_69 VGND VGND VPWR VPWR sky130_fd_sc_hd__fill_2
XFILLER_0_54_180 VGND VGND VPWR VPWR sky130_fd_sc_hd__fill_1
XFILLER_0_24_83 VGND VGND VPWR VPWR sky130_fd_sc_hd__fill_1
Xoutput264 net264 VGND VGND VPWR VPWR FrameStrobe_O[1] sky130_fd_sc_hd__clkbuf_4
Xoutput253 net253 VGND VGND VPWR VPWR FrameStrobe_O[0] sky130_fd_sc_hd__buf_2
Xoutput242 net242 VGND VGND VPWR VPWR FrameData_O[29] sky130_fd_sc_hd__clkbuf_4
Xoutput275 net275 VGND VGND VPWR VPWR N1BEG[2] sky130_fd_sc_hd__clkbuf_4
Xoutput286 net286 VGND VGND VPWR VPWR N2BEGb[1] sky130_fd_sc_hd__clkbuf_4
XFILLER_0_71_3 VGND VGND VPWR VPWR sky130_fd_sc_hd__fill_2
Xoutput231 net231 VGND VGND VPWR VPWR FrameData_O[19] sky130_fd_sc_hd__buf_2
XFILLER_0_10_250 VGND VGND VPWR VPWR sky130_fd_sc_hd__fill_2
Xoutput220 net220 VGND VGND VPWR VPWR FAB2RAM_D3_O3 sky130_fd_sc_hd__clkbuf_4
Xoutput297 net297 VGND VGND VPWR VPWR N4BEG[13] sky130_fd_sc_hd__clkbuf_4
XFILLER_0_77_250 VGND VGND VPWR VPWR sky130_fd_sc_hd__fill_2
XFILLER_0_69_228 VGND VGND VPWR VPWR sky130_fd_sc_hd__decap_8
XFILLER_0_29_39 VGND VGND VPWR VPWR sky130_fd_sc_hd__fill_2
XFILLER_0_61_37 VGND VGND VPWR VPWR sky130_fd_sc_hd__fill_2
XFILLER_0_51_161 VGND VGND VPWR VPWR sky130_fd_sc_hd__decap_4
XFILLER_0_10_85 VGND VGND VPWR VPWR sky130_fd_sc_hd__decap_8
XFILLER_0_19_72 VGND VGND VPWR VPWR sky130_fd_sc_hd__fill_1
XFILLER_0_19_94 VGND VGND VPWR VPWR sky130_ef_sc_hd__decap_12
XFILLER_0_66_209 VGND VGND VPWR VPWR sky130_fd_sc_hd__decap_4
XFILLER_0_19_169 VGND VGND VPWR VPWR sky130_fd_sc_hd__decap_4
XFILLER_0_27_180 VGND VGND VPWR VPWR sky130_fd_sc_hd__fill_1
XFILLER_0_42_194 VGND VGND VPWR VPWR sky130_fd_sc_hd__fill_2
XFILLER_0_57_209 VGND VGND VPWR VPWR sky130_ef_sc_hd__decap_12
XFILLER_0_40_109 VGND VGND VPWR VPWR sky130_ef_sc_hd__decap_12
XFILLER_0_72_69 VGND VGND VPWR VPWR sky130_ef_sc_hd__decap_12
XInst_RAM_IO_ConfigMem_Inst_frame7_bit3 net74 net98 VGND VGND VPWR VPWR ConfigBits\[75\]
+ Inst_RAM_IO_ConfigMem_Inst_frame7_bit3/Q_N sky130_fd_sc_hd__dlxbp_1
Xdata_inbuf_20__0_ net61 VGND VGND VPWR VPWR FrameData_O_i\[20\] sky130_fd_sc_hd__clkbuf_1
XFILLER_0_56_220 VGND VGND VPWR VPWR sky130_ef_sc_hd__decap_12
XFILLER_0_48_209 VGND VGND VPWR VPWR sky130_fd_sc_hd__decap_4
XInst_RAM_IO_switch_matrix_inst_cus_mux41_buf_WW4BEG1 RAM2FAB_D0_O1 RAM2FAB_D3_O1
+ J_NS4_BEG\[14\] J_NS2_BEG\[6\] ConfigBits\[162\] ConfigBits\[163\] VGND VGND VPWR
+ VPWR net385 sky130_fd_sc_hd__mux4_1
XFILLER_0_62_212 VGND VGND VPWR VPWR sky130_ef_sc_hd__decap_12
XFILLER_0_62_201 VGND VGND VPWR VPWR sky130_fd_sc_hd__decap_4
Xdata_inbuf_11__0_ net51 VGND VGND VPWR VPWR FrameData_O_i\[11\] sky130_fd_sc_hd__clkbuf_1
XFILLER_0_47_242 VGND VGND VPWR VPWR sky130_fd_sc_hd__decap_3
XFILLER_0_30_131 VGND VGND VPWR VPWR sky130_fd_sc_hd__decap_8
XFILLER_0_30_197 VGND VGND VPWR VPWR sky130_fd_sc_hd__fill_1
XFILLER_0_53_223 VGND VGND VPWR VPWR sky130_fd_sc_hd__fill_1
XFILLER_0_67_69 VGND VGND VPWR VPWR sky130_fd_sc_hd__decap_8
XTAP_348 VGND VPWR sky130_fd_sc_hd__tapvpwrvgnd_1
XTAP_337 VGND VPWR sky130_fd_sc_hd__tapvpwrvgnd_1
XTAP_326 VGND VPWR sky130_fd_sc_hd__tapvpwrvgnd_1
XANTENNA_5 S4BEG_i\[11\] VGND VGND VPWR VPWR sky130_fd_sc_hd__diode_2
XTAP_304 VGND VPWR sky130_fd_sc_hd__tapvpwrvgnd_1
XTAP_315 VGND VPWR sky130_fd_sc_hd__tapvpwrvgnd_1
XTAP_359 VGND VPWR sky130_fd_sc_hd__tapvpwrvgnd_1
XInst_FAB2RAM_D2_OutPass4_frame_config_mux_cus_mux21_inst0_break_comb_loop_inst0__0_
+ FAB2RAM_D2_I0 VGND VGND VPWR VPWR Inst_FAB2RAM_D2_OutPass4_frame_config_mux_cus_mux21_inst0__2_/A
+ sky130_fd_sc_hd__clkbuf_1
XFILLER_0_20_9 VGND VGND VPWR VPWR sky130_fd_sc_hd__decap_4
XFILLER_0_32_83 VGND VGND VPWR VPWR sky130_fd_sc_hd__fill_1
XFILLER_0_12_164 VGND VGND VPWR VPWR sky130_ef_sc_hd__decap_12
XFILLER_0_57_91 VGND VGND VPWR VPWR sky130_ef_sc_hd__decap_12
XFILLER_0_12_197 VGND VGND VPWR VPWR sky130_ef_sc_hd__decap_12
XFILLER_0_35_201 VGND VGND VPWR VPWR sky130_fd_sc_hd__fill_1
XFILLER_0_50_237 VGND VGND VPWR VPWR sky130_fd_sc_hd__fill_2
XInst_RAM_IO_switch_matrix_inst_cus_mux41_buf_WW4BEG15 RAM2FAB_D0_O3 RAM2FAB_D3_O3
+ J_NS4_BEG\[0\] J_NS2_BEG\[0\] ConfigBits\[190\] ConfigBits\[191\] VGND VGND VPWR
+ VPWR net384 sky130_fd_sc_hd__mux4_1
Xinput175 S4END[11] VGND VGND VPWR VPWR net175 sky130_fd_sc_hd__clkbuf_1
Xinput186 S4END[7] VGND VGND VPWR VPWR net186 sky130_fd_sc_hd__clkbuf_1
Xinput164 S2END[7] VGND VGND VPWR VPWR net164 sky130_fd_sc_hd__clkbuf_2
Xinput153 S1END[0] VGND VGND VPWR VPWR net153 sky130_fd_sc_hd__buf_2
Xinput120 N2MID[7] VGND VGND VPWR VPWR net120 sky130_fd_sc_hd__buf_1
Xinput131 N4END[4] VGND VGND VPWR VPWR net131 sky130_fd_sc_hd__clkbuf_1
Xinput142 RAM2FAB_D1_I1 VGND VGND VPWR VPWR net142 sky130_fd_sc_hd__buf_1
XFILLER_0_37_28 VGND VGND VPWR VPWR sky130_fd_sc_hd__fill_1
Xstrobe_outbuf_14__0_ FrameStrobe_O_i\[14\] VGND VGND VPWR VPWR net258 sky130_fd_sc_hd__clkbuf_1
Xdata_outbuf_9__0_ FrameData_O_i\[9\] VGND VGND VPWR VPWR net252 sky130_fd_sc_hd__clkbuf_1
XFILLER_0_5_128 VGND VGND VPWR VPWR sky130_fd_sc_hd__fill_2
XInst_RAM_IO_ConfigMem_Inst_frame4_bit6 net77 net95 VGND VGND VPWR VPWR ConfigBits\[174\]
+ Inst_RAM_IO_ConfigMem_Inst_frame4_bit6/Q_N sky130_fd_sc_hd__dlxbp_1
XInst_FAB2RAM_A0_OutPass4_frame_config_mux_cus_mux21_inst2__2_ Inst_FAB2RAM_A0_OutPass4_frame_config_mux_cus_mux21_inst2__2_/A
+ VGND VGND VPWR VPWR Inst_FAB2RAM_A0_OutPass4_frame_config_mux_cus_mux21_inst2__2_/Y
+ sky130_fd_sc_hd__inv_2
XTAP_189 VGND VPWR sky130_fd_sc_hd__tapvpwrvgnd_1
XTAP_178 VGND VPWR sky130_fd_sc_hd__tapvpwrvgnd_1
XTAP_167 VGND VPWR sky130_fd_sc_hd__tapvpwrvgnd_1
XTAP_156 VGND VPWR sky130_fd_sc_hd__tapvpwrvgnd_1
XFILLER_0_32_226 VGND VGND VPWR VPWR sky130_fd_sc_hd__decap_3
XInst_FAB2RAM_C_OutPass4_frame_config_mux_cus_mux21_inst3_break_comb_loop_inst1__0_
+ Inst_FAB2RAM_C_OutPass4_frame_config_mux__3_/Q VGND VGND VPWR VPWR Inst_FAB2RAM_C_OutPass4_frame_config_mux_cus_mux21_inst3__3_/A
+ sky130_fd_sc_hd__clkbuf_1
XFILLER_0_73_137 VGND VGND VPWR VPWR sky130_ef_sc_hd__decap_12
XFILLER_0_58_189 VGND VGND VPWR VPWR sky130_fd_sc_hd__decap_6
XInst_FAB2RAM_C_OutPass4_frame_config_mux__3_ UserCLK FAB2RAM_C_I3 VGND VGND VPWR
+ VPWR Inst_FAB2RAM_C_OutPass4_frame_config_mux__3_/Q sky130_fd_sc_hd__dfxtp_1
XFILLER_0_1_153 VGND VGND VPWR VPWR sky130_fd_sc_hd__fill_2
XInst_FAB2RAM_D0_OutPass4_frame_config_mux_cus_mux21_inst0__2_ Inst_FAB2RAM_D0_OutPass4_frame_config_mux_cus_mux21_inst0__2_/A
+ VGND VGND VPWR VPWR Inst_FAB2RAM_D0_OutPass4_frame_config_mux_cus_mux21_inst0__2_/Y
+ sky130_fd_sc_hd__inv_2
XFILLER_0_38_93 VGND VGND VPWR VPWR sky130_fd_sc_hd__decap_4
XFILLER_0_34_29 VGND VGND VPWR VPWR sky130_ef_sc_hd__decap_12
XInst_FAB2RAM_D2_OutPass4_frame_config_mux_cus_mux21_inst1__2_ Inst_FAB2RAM_D2_OutPass4_frame_config_mux_cus_mux21_inst1__2_/A
+ VGND VGND VPWR VPWR Inst_FAB2RAM_D2_OutPass4_frame_config_mux_cus_mux21_inst1__2_/Y
+ sky130_fd_sc_hd__inv_2
XFILLER_0_55_126 VGND VGND VPWR VPWR sky130_fd_sc_hd__fill_1
XInst_RAM_IO_switch_matrix_inst_cus_mux41_buf_J_NS2_BEG7 net120 net112 net172 net164
+ ConfigBits\[318\] ConfigBits\[319\] VGND VGND VPWR VPWR J_NS2_BEG\[7\] sky130_fd_sc_hd__mux4_2
XInst_FAB2RAM_A0_OutPass4_frame_config_mux_cus_mux21_inst0_break_comb_loop_inst1__0_
+ Inst_FAB2RAM_A0_OutPass4_frame_config_mux__0_/Q VGND VGND VPWR VPWR Inst_FAB2RAM_A0_OutPass4_frame_config_mux_cus_mux21_inst0__3_/A
+ sky130_fd_sc_hd__clkbuf_1
XFILLER_0_63_181 VGND VGND VPWR VPWR sky130_ef_sc_hd__decap_12
XInst_RAM_IO_ConfigMem_Inst_frame1_bit9 net80 net92 VGND VGND VPWR VPWR ConfigBits\[273\]
+ Inst_RAM_IO_ConfigMem_Inst_frame1_bit9/Q_N sky130_fd_sc_hd__dlxbp_1
XFILLER_0_11_218 VGND VGND VPWR VPWR sky130_fd_sc_hd__decap_6
XFILLER_0_40_83 VGND VGND VPWR VPWR sky130_fd_sc_hd__fill_1
Xoutput265 net265 VGND VGND VPWR VPWR FrameStrobe_O[2] sky130_fd_sc_hd__buf_2
Xoutput298 net298 VGND VGND VPWR VPWR N4BEG[14] sky130_fd_sc_hd__buf_2
Xoutput254 net254 VGND VGND VPWR VPWR FrameStrobe_O[10] sky130_fd_sc_hd__clkbuf_4
Xoutput276 net276 VGND VGND VPWR VPWR N1BEG[3] sky130_fd_sc_hd__clkbuf_4
Xoutput287 net287 VGND VGND VPWR VPWR N2BEGb[2] sky130_fd_sc_hd__clkbuf_4
Xoutput243 net243 VGND VGND VPWR VPWR FrameData_O[2] sky130_fd_sc_hd__buf_2
Xoutput232 net232 VGND VGND VPWR VPWR FrameData_O[1] sky130_fd_sc_hd__buf_2
Xoutput221 net221 VGND VGND VPWR VPWR FrameData_O[0] sky130_fd_sc_hd__buf_2
Xoutput210 net210 VGND VGND VPWR VPWR FAB2RAM_D1_O1 sky130_fd_sc_hd__buf_2
XFILLER_0_52_118 VGND VGND VPWR VPWR sky130_ef_sc_hd__decap_12
Xstrobe_inbuf_11__0_ net83 VGND VGND VPWR VPWR FrameStrobe_O_i\[11\] sky130_fd_sc_hd__clkbuf_1
XInst_RAM_IO_switch_matrix_inst_cus_mux81_buf_N4BEG2_cus_mux21_inst_break_comb_loop_inst1__0_
+ Inst_RAM_IO_switch_matrix_inst_cus_mux81_buf_N4BEG2_cus_mux41_buf_inst1/X VGND VGND
+ VPWR VPWR Inst_RAM_IO_switch_matrix_inst_cus_mux81_buf_N4BEG2_cus_mux21_inst__3_/A
+ sky130_fd_sc_hd__clkbuf_1
XFILLER_0_43_107 VGND VGND VPWR VPWR sky130_fd_sc_hd__decap_4
XFILLER_0_9_39 VGND VGND VPWR VPWR sky130_fd_sc_hd__fill_2
XFILLER_0_28_137 VGND VGND VPWR VPWR sky130_fd_sc_hd__decap_3
XFILLER_0_28_159 VGND VGND VPWR VPWR sky130_ef_sc_hd__decap_12
XFILLER_0_51_93 VGND VGND VPWR VPWR sky130_fd_sc_hd__fill_2
XFILLER_0_42_173 VGND VGND VPWR VPWR sky130_fd_sc_hd__decap_3
XInst_RAM_IO_switch_matrix_inst_cus_mux81_buf_S4BEG3_cus_mux21_inst__4_ ConfigBits\[119\]
+ Inst_RAM_IO_switch_matrix_inst_cus_mux81_buf_S4BEG3_cus_mux21_inst__2_/Y Inst_RAM_IO_switch_matrix_inst_cus_mux81_buf_S4BEG3_cus_mux21_inst__3_/Y
+ VGND VGND VPWR VPWR net335 sky130_fd_sc_hd__o21ai_1
XFILLER_0_65_210 VGND VGND VPWR VPWR sky130_fd_sc_hd__decap_6
XInst_RAM_IO_ConfigMem_Inst_frame7_bit4 net75 net98 VGND VGND VPWR VPWR ConfigBits\[76\]
+ Inst_RAM_IO_ConfigMem_Inst_frame7_bit4/Q_N sky130_fd_sc_hd__dlxbp_1
XFILLER_0_56_232 VGND VGND VPWR VPWR sky130_fd_sc_hd__decap_3
XFILLER_0_24_195 VGND VGND VPWR VPWR sky130_fd_sc_hd__fill_1
XInst_RAM_IO_switch_matrix_inst_cus_mux41_buf_WW4BEG2 RAM2FAB_D0_O2 RAM2FAB_D3_O2
+ J_NS4_BEG\[13\] J_NS2_BEG\[5\] ConfigBits\[164\] ConfigBits\[165\] VGND VGND VPWR
+ VPWR net386 sky130_fd_sc_hd__mux4_1
Xstrobe_outbuf_9__0_ FrameStrobe_O_i\[9\] VGND VGND VPWR VPWR net272 sky130_fd_sc_hd__clkbuf_1
XFILLER_0_27_3 VGND VGND VPWR VPWR sky130_fd_sc_hd__decap_3
XInst_FAB2RAM_A0_OutPass4_frame_config_mux_cus_mux21_inst1_break_comb_loop_inst0__0_
+ FAB2RAM_A0_I1 VGND VGND VPWR VPWR Inst_FAB2RAM_A0_OutPass4_frame_config_mux_cus_mux21_inst1__2_/A
+ sky130_fd_sc_hd__clkbuf_1
XFILLER_0_62_224 VGND VGND VPWR VPWR sky130_ef_sc_hd__decap_12
XFILLER_0_42_29 VGND VGND VPWR VPWR sky130_fd_sc_hd__decap_4
XFILLER_0_38_221 VGND VGND VPWR VPWR sky130_ef_sc_hd__decap_12
Xdata_inbuf_3__0_ net74 VGND VGND VPWR VPWR FrameData_O_i\[3\] sky130_fd_sc_hd__clkbuf_1
XANTENNA_6 net17 VGND VGND VPWR VPWR sky130_fd_sc_hd__diode_2
XTAP_349 VGND VPWR sky130_fd_sc_hd__tapvpwrvgnd_1
XTAP_338 VGND VPWR sky130_fd_sc_hd__tapvpwrvgnd_1
XTAP_327 VGND VPWR sky130_fd_sc_hd__tapvpwrvgnd_1
XTAP_316 VGND VPWR sky130_fd_sc_hd__tapvpwrvgnd_1
XTAP_305 VGND VPWR sky130_fd_sc_hd__tapvpwrvgnd_1
XFILLER_0_12_176 VGND VGND VPWR VPWR sky130_ef_sc_hd__decap_12
XFILLER_0_50_216 VGND VGND VPWR VPWR sky130_ef_sc_hd__decap_12
XFILLER_0_7_181 VGND VGND VPWR VPWR sky130_ef_sc_hd__decap_12
XFILLER_0_35_235 VGND VGND VPWR VPWR sky130_fd_sc_hd__fill_1
Xinput110 N2END[5] VGND VGND VPWR VPWR net110 sky130_fd_sc_hd__buf_1
Xinput187 S4END[8] VGND VGND VPWR VPWR net187 sky130_fd_sc_hd__clkbuf_1
Xinput165 S2MID[0] VGND VGND VPWR VPWR net165 sky130_fd_sc_hd__clkbuf_2
Xinput176 S4END[12] VGND VGND VPWR VPWR net176 sky130_fd_sc_hd__clkbuf_1
Xinput154 S1END[1] VGND VGND VPWR VPWR net154 sky130_fd_sc_hd__buf_2
Xinput132 N4END[5] VGND VGND VPWR VPWR net132 sky130_fd_sc_hd__clkbuf_1
Xinput121 N4END[0] VGND VGND VPWR VPWR net121 sky130_fd_sc_hd__dlymetal6s2s_1
Xinput143 RAM2FAB_D1_I2 VGND VGND VPWR VPWR net143 sky130_fd_sc_hd__buf_1
XFILLER_0_5_107 VGND VGND VPWR VPWR sky130_fd_sc_hd__decap_4
XInst_RAM_IO_ConfigMem_Inst_frame4_bit7 net78 net95 VGND VGND VPWR VPWR ConfigBits\[175\]
+ Inst_RAM_IO_ConfigMem_Inst_frame4_bit7/Q_N sky130_fd_sc_hd__dlxbp_1
XInst_RAM2FAB_D1_InPass4_frame_config_mux_cus_mux21_inst0_break_comb_loop_inst0__0_
+ net141 VGND VGND VPWR VPWR Inst_RAM2FAB_D1_InPass4_frame_config_mux_cus_mux21_inst0__2_/A
+ sky130_fd_sc_hd__clkbuf_1
XTAP_179 VGND VPWR sky130_fd_sc_hd__tapvpwrvgnd_1
XTAP_168 VGND VPWR sky130_fd_sc_hd__tapvpwrvgnd_1
XTAP_157 VGND VPWR sky130_fd_sc_hd__tapvpwrvgnd_1
XFILLER_0_76_146 VGND VGND VPWR VPWR sky130_fd_sc_hd__decap_6
XN4END_inbuf_9__0_ net125 VGND VGND VPWR VPWR N4BEG_i\[9\] sky130_fd_sc_hd__clkbuf_2
XInst_FAB2RAM_D0_OutPass4_frame_config_mux_cus_mux21_inst3__4_ ConfigBits\[19\] Inst_FAB2RAM_D0_OutPass4_frame_config_mux_cus_mux21_inst3__2_/Y
+ Inst_FAB2RAM_D0_OutPass4_frame_config_mux_cus_mux21_inst3__3_/Y VGND VGND VPWR VPWR
+ net208 sky130_fd_sc_hd__o21ai_1
XFILLER_0_4_195 VGND VGND VPWR VPWR sky130_fd_sc_hd__fill_1
XFILLER_0_4_173 VGND VGND VPWR VPWR sky130_fd_sc_hd__fill_1
XInst_RAM2FAB_D2_InPass4_frame_config_mux__3_ UserCLK net148 VGND VGND VPWR VPWR Inst_RAM2FAB_D2_InPass4_frame_config_mux__3_/Q
+ sky130_fd_sc_hd__dfxtp_1
XFILLER_0_23_205 VGND VGND VPWR VPWR sky130_ef_sc_hd__decap_12
XFILLER_0_73_149 VGND VGND VPWR VPWR sky130_ef_sc_hd__decap_12
XN4BEG_outbuf_1__0_ N4BEG_i\[1\] VGND VGND VPWR VPWR net300 sky130_fd_sc_hd__clkbuf_1
XInst_FAB2RAM_C_OutPass4_frame_config_mux__2_ UserCLK FAB2RAM_C_I2 VGND VGND VPWR
+ VPWR Inst_FAB2RAM_C_OutPass4_frame_config_mux__2_/Q sky130_fd_sc_hd__dfxtp_1
XFILLER_0_38_83 VGND VGND VPWR VPWR sky130_fd_sc_hd__fill_1
XFILLER_0_64_149 VGND VGND VPWR VPWR sky130_ef_sc_hd__decap_12
XFILLER_0_64_116 VGND VGND VPWR VPWR sky130_ef_sc_hd__decap_12
XFILLER_0_49_146 VGND VGND VPWR VPWR sky130_fd_sc_hd__fill_1
XFILLER_0_55_105 VGND VGND VPWR VPWR sky130_fd_sc_hd__decap_6
XFILLER_0_63_193 VGND VGND VPWR VPWR sky130_ef_sc_hd__decap_12
XFILLER_0_59_49 VGND VGND VPWR VPWR sky130_fd_sc_hd__decap_6
XFILLER_0_75_48 VGND VGND VPWR VPWR sky130_fd_sc_hd__fill_2
XInst_FAB2RAM_D1_OutPass4_frame_config_mux_cus_mux21_inst0_break_comb_loop_inst1__0_
+ Inst_FAB2RAM_D1_OutPass4_frame_config_mux__0_/Q VGND VGND VPWR VPWR Inst_FAB2RAM_D1_OutPass4_frame_config_mux_cus_mux21_inst0__3_/A
+ sky130_fd_sc_hd__clkbuf_1
XFILLER_0_61_108 VGND VGND VPWR VPWR sky130_fd_sc_hd__decap_4
Xoutput200 net200 VGND VGND VPWR VPWR FAB2RAM_A1_O3 sky130_fd_sc_hd__clkbuf_4
Xoutput299 net299 VGND VGND VPWR VPWR N4BEG[15] sky130_fd_sc_hd__clkbuf_4
Xoutput266 net266 VGND VGND VPWR VPWR FrameStrobe_O[3] sky130_fd_sc_hd__buf_2
Xoutput244 net244 VGND VGND VPWR VPWR FrameData_O[30] sky130_fd_sc_hd__clkbuf_4
Xoutput277 net277 VGND VGND VPWR VPWR N2BEG[0] sky130_fd_sc_hd__clkbuf_4
Xoutput255 net255 VGND VGND VPWR VPWR FrameStrobe_O[11] sky130_fd_sc_hd__clkbuf_4
Xoutput288 net288 VGND VGND VPWR VPWR N2BEGb[3] sky130_fd_sc_hd__clkbuf_4
Xoutput233 net233 VGND VGND VPWR VPWR FrameData_O[20] sky130_fd_sc_hd__buf_2
Xoutput222 net222 VGND VGND VPWR VPWR FrameData_O[10] sky130_fd_sc_hd__buf_2
Xoutput211 net211 VGND VGND VPWR VPWR FAB2RAM_D1_O2 sky130_fd_sc_hd__clkbuf_4
XFILLER_0_60_141 VGND VGND VPWR VPWR sky130_fd_sc_hd__decap_8
Xdata_outbuf_30__0_ FrameData_O_i\[30\] VGND VGND VPWR VPWR net244 sky130_fd_sc_hd__clkbuf_1
XFILLER_0_19_138 VGND VGND VPWR VPWR sky130_fd_sc_hd__fill_1
XFILLER_0_42_141 VGND VGND VPWR VPWR sky130_ef_sc_hd__decap_12
XInst_RAM_IO_switch_matrix_inst_cus_mux81_buf_S4BEG3_cus_mux21_inst__3_ Inst_RAM_IO_switch_matrix_inst_cus_mux81_buf_S4BEG3_cus_mux21_inst__3_/A
+ ConfigBits\[119\] VGND VGND VPWR VPWR Inst_RAM_IO_switch_matrix_inst_cus_mux81_buf_S4BEG3_cus_mux21_inst__3_/Y
+ sky130_fd_sc_hd__nand2_1
Xdata_outbuf_21__0_ FrameData_O_i\[21\] VGND VGND VPWR VPWR net234 sky130_fd_sc_hd__clkbuf_1
XInst_FAB2RAM_D3_OutPass4_frame_config_mux_cus_mux21_inst1_break_comb_loop_inst1__0_
+ Inst_FAB2RAM_D3_OutPass4_frame_config_mux__1_/Q VGND VGND VPWR VPWR Inst_FAB2RAM_D3_OutPass4_frame_config_mux_cus_mux21_inst1__3_/A
+ sky130_fd_sc_hd__clkbuf_1
Xdata_outbuf_12__0_ FrameData_O_i\[12\] VGND VGND VPWR VPWR net224 sky130_fd_sc_hd__clkbuf_1
XFILLER_0_71_225 VGND VGND VPWR VPWR sky130_fd_sc_hd__fill_2
XInst_RAM_IO_ConfigMem_Inst_frame7_bit5 net76 net98 VGND VGND VPWR VPWR ConfigBits\[77\]
+ Inst_RAM_IO_ConfigMem_Inst_frame7_bit5/Q_N sky130_fd_sc_hd__dlxbp_1
XS4BEG_outbuf_1__0_ S4BEG_i\[1\] VGND VGND VPWR VPWR net336 sky130_fd_sc_hd__clkbuf_1
XInst_RAM_IO_switch_matrix_inst_cus_mux41_buf_WW4BEG3 RAM2FAB_D0_O3 RAM2FAB_D3_O3
+ J_NS4_BEG\[12\] J_NS2_BEG\[4\] ConfigBits\[166\] ConfigBits\[167\] VGND VGND VPWR
+ VPWR net387 sky130_fd_sc_hd__mux4_1
XFILLER_0_46_50 VGND VGND VPWR VPWR sky130_fd_sc_hd__decap_4
XFILLER_0_1_85 VGND VGND VPWR VPWR sky130_fd_sc_hd__fill_2
XInst_FAB2RAM_D1_OutPass4_frame_config_mux_cus_mux21_inst1_break_comb_loop_inst0__0_
+ FAB2RAM_D1_I1 VGND VGND VPWR VPWR Inst_FAB2RAM_D1_OutPass4_frame_config_mux_cus_mux21_inst1__2_/A
+ sky130_fd_sc_hd__clkbuf_1
XFILLER_0_42_19 VGND VGND VPWR VPWR sky130_fd_sc_hd__decap_8
XFILLER_0_38_233 VGND VGND VPWR VPWR sky130_ef_sc_hd__decap_12
XANTENNA_7 net67 VGND VGND VPWR VPWR sky130_fd_sc_hd__diode_2
XFILLER_0_21_111 VGND VGND VPWR VPWR sky130_fd_sc_hd__fill_1
XTAP_339 VGND VPWR sky130_fd_sc_hd__tapvpwrvgnd_1
XTAP_328 VGND VPWR sky130_fd_sc_hd__tapvpwrvgnd_1
XTAP_317 VGND VPWR sky130_fd_sc_hd__tapvpwrvgnd_1
XFILLER_0_21_188 VGND VGND VPWR VPWR sky130_fd_sc_hd__decap_8
XTAP_306 VGND VPWR sky130_fd_sc_hd__tapvpwrvgnd_1
XFILLER_0_16_53 VGND VGND VPWR VPWR sky130_fd_sc_hd__decap_8
XFILLER_0_12_188 VGND VGND VPWR VPWR sky130_fd_sc_hd__decap_8
XFILLER_0_7_193 VGND VGND VPWR VPWR sky130_fd_sc_hd__decap_3
Xinput100 FrameStrobe[9] VGND VGND VPWR VPWR net100 sky130_fd_sc_hd__buf_8
Xinput133 N4END[6] VGND VGND VPWR VPWR net133 sky130_fd_sc_hd__clkbuf_1
Xinput122 N4END[10] VGND VGND VPWR VPWR net122 sky130_fd_sc_hd__clkbuf_1
Xinput111 N2END[6] VGND VGND VPWR VPWR net111 sky130_fd_sc_hd__clkbuf_2
Xinput144 RAM2FAB_D1_I3 VGND VGND VPWR VPWR net144 sky130_fd_sc_hd__clkbuf_1
Xinput188 S4END[9] VGND VGND VPWR VPWR net188 sky130_fd_sc_hd__clkbuf_1
Xinput177 S4END[13] VGND VGND VPWR VPWR net177 sky130_fd_sc_hd__clkbuf_1
Xinput166 S2MID[1] VGND VGND VPWR VPWR net166 sky130_fd_sc_hd__buf_1
Xinput155 S1END[2] VGND VGND VPWR VPWR net155 sky130_fd_sc_hd__buf_2
XPHY_150 VGND VGND VPWR VPWR sky130_fd_sc_hd__decap_3
XInst_RAM_IO_ConfigMem_Inst_frame4_bit8 net79 net95 VGND VGND VPWR VPWR ConfigBits\[176\]
+ Inst_RAM_IO_ConfigMem_Inst_frame4_bit8/Q_N sky130_fd_sc_hd__dlxbp_1
XTAP_169 VGND VPWR sky130_fd_sc_hd__tapvpwrvgnd_1
XTAP_158 VGND VPWR sky130_fd_sc_hd__tapvpwrvgnd_1
XFILLER_0_76_136 VGND VGND VPWR VPWR sky130_fd_sc_hd__fill_1