* NGSPICE file created from RegFile.ext - technology: sky130A

* Black-box entry subcircuit for sky130_fd_sc_hd__fill_2 abstract view
.subckt sky130_fd_sc_hd__fill_2 VGND VNB VPB VPWR
.ends

* Black-box entry subcircuit for sky130_fd_sc_hd__clkbuf_2 abstract view
.subckt sky130_fd_sc_hd__clkbuf_2 A VGND VNB VPB VPWR X
.ends

* Black-box entry subcircuit for sky130_fd_sc_hd__tapvpwrvgnd_1 abstract view
.subckt sky130_fd_sc_hd__tapvpwrvgnd_1 VGND VPWR
.ends

* Black-box entry subcircuit for sky130_fd_sc_hd__dlxbp_1 abstract view
.subckt sky130_fd_sc_hd__dlxbp_1 D GATE VGND VNB VPB VPWR Q Q_N
.ends

* Black-box entry subcircuit for sky130_fd_sc_hd__decap_3 abstract view
.subckt sky130_fd_sc_hd__decap_3 VGND VNB VPB VPWR
.ends

* Black-box entry subcircuit for sky130_fd_sc_hd__fill_1 abstract view
.subckt sky130_fd_sc_hd__fill_1 VGND VNB VPB VPWR
.ends

* Black-box entry subcircuit for sky130_fd_sc_hd__decap_8 abstract view
.subckt sky130_fd_sc_hd__decap_8 VGND VNB VPB VPWR
.ends

* Black-box entry subcircuit for sky130_ef_sc_hd__decap_12 abstract view
.subckt sky130_ef_sc_hd__decap_12 VGND VNB VPB VPWR
.ends

* Black-box entry subcircuit for sky130_fd_sc_hd__mux4_1 abstract view
.subckt sky130_fd_sc_hd__mux4_1 A0 A1 A2 A3 S0 S1 VGND VNB VPB VPWR X
.ends

* Black-box entry subcircuit for sky130_fd_sc_hd__mux4_2 abstract view
.subckt sky130_fd_sc_hd__mux4_2 A0 A1 A2 A3 S0 S1 VGND VNB VPB VPWR X
.ends

* Black-box entry subcircuit for sky130_fd_sc_hd__buf_2 abstract view
.subckt sky130_fd_sc_hd__buf_2 A VGND VNB VPB VPWR X
.ends

* Black-box entry subcircuit for sky130_fd_sc_hd__dfxtp_1 abstract view
.subckt sky130_fd_sc_hd__dfxtp_1 CLK D VGND VNB VPB VPWR Q
.ends

* Black-box entry subcircuit for sky130_fd_sc_hd__clkbuf_4 abstract view
.subckt sky130_fd_sc_hd__clkbuf_4 A VGND VNB VPB VPWR X
.ends

* Black-box entry subcircuit for sky130_fd_sc_hd__mux2_1 abstract view
.subckt sky130_fd_sc_hd__mux2_1 A0 A1 S VGND VNB VPB VPWR X
.ends

* Black-box entry subcircuit for sky130_fd_sc_hd__buf_1 abstract view
.subckt sky130_fd_sc_hd__buf_1 A VGND VNB VPB VPWR X
.ends

* Black-box entry subcircuit for sky130_fd_sc_hd__clkbuf_1 abstract view
.subckt sky130_fd_sc_hd__clkbuf_1 A VGND VNB VPB VPWR X
.ends

* Black-box entry subcircuit for sky130_fd_sc_hd__decap_6 abstract view
.subckt sky130_fd_sc_hd__decap_6 VGND VNB VPB VPWR
.ends

* Black-box entry subcircuit for sky130_fd_sc_hd__buf_12 abstract view
.subckt sky130_fd_sc_hd__buf_12 A VGND VNB VPB VPWR X
.ends

* Black-box entry subcircuit for sky130_fd_sc_hd__a21o_1 abstract view
.subckt sky130_fd_sc_hd__a21o_1 A1 A2 B1 VGND VNB VPB VPWR X
.ends

* Black-box entry subcircuit for sky130_fd_sc_hd__decap_4 abstract view
.subckt sky130_fd_sc_hd__decap_4 VGND VNB VPB VPWR
.ends

* Black-box entry subcircuit for sky130_fd_sc_hd__or3b_4 abstract view
.subckt sky130_fd_sc_hd__or3b_4 A B C_N VGND VNB VPB VPWR X
.ends

* Black-box entry subcircuit for sky130_fd_sc_hd__and2b_1 abstract view
.subckt sky130_fd_sc_hd__and2b_1 A_N B VGND VNB VPB VPWR X
.ends

* Black-box entry subcircuit for sky130_fd_sc_hd__nor2_2 abstract view
.subckt sky130_fd_sc_hd__nor2_2 A B VGND VNB VPB VPWR Y
.ends

* Black-box entry subcircuit for sky130_fd_sc_hd__diode_2 abstract view
.subckt sky130_fd_sc_hd__diode_2 DIODE VGND VNB VPB VPWR
.ends

* Black-box entry subcircuit for sky130_fd_sc_hd__buf_4 abstract view
.subckt sky130_fd_sc_hd__buf_4 A VGND VNB VPB VPWR X
.ends

* Black-box entry subcircuit for sky130_fd_sc_hd__dlymetal6s2s_1 abstract view
.subckt sky130_fd_sc_hd__dlymetal6s2s_1 A VGND VNB VPB VPWR X
.ends

* Black-box entry subcircuit for sky130_fd_sc_hd__and2_1 abstract view
.subckt sky130_fd_sc_hd__and2_1 A B VGND VNB VPB VPWR X
.ends

* Black-box entry subcircuit for sky130_fd_sc_hd__nand3_4 abstract view
.subckt sky130_fd_sc_hd__nand3_4 A B C VGND VNB VPB VPWR Y
.ends

* Black-box entry subcircuit for sky130_fd_sc_hd__or3b_1 abstract view
.subckt sky130_fd_sc_hd__or3b_1 A B C_N VGND VNB VPB VPWR X
.ends

* Black-box entry subcircuit for sky130_fd_sc_hd__nand2_2 abstract view
.subckt sky130_fd_sc_hd__nand2_2 A B VGND VNB VPB VPWR Y
.ends

* Black-box entry subcircuit for sky130_fd_sc_hd__o22a_1 abstract view
.subckt sky130_fd_sc_hd__o22a_1 A1 A2 B1 B2 VGND VNB VPB VPWR X
.ends

* Black-box entry subcircuit for sky130_fd_sc_hd__clkbuf_16 abstract view
.subckt sky130_fd_sc_hd__clkbuf_16 A VGND VNB VPB VPWR X
.ends

* Black-box entry subcircuit for sky130_fd_sc_hd__and3b_2 abstract view
.subckt sky130_fd_sc_hd__and3b_2 A_N B C VGND VNB VPB VPWR X
.ends

* Black-box entry subcircuit for sky130_fd_sc_hd__and3b_4 abstract view
.subckt sky130_fd_sc_hd__and3b_4 A_N B C VGND VNB VPB VPWR X
.ends

* Black-box entry subcircuit for sky130_fd_sc_hd__and3_2 abstract view
.subckt sky130_fd_sc_hd__and3_2 A B C VGND VNB VPB VPWR X
.ends

* Black-box entry subcircuit for sky130_fd_sc_hd__inv_2 abstract view
.subckt sky130_fd_sc_hd__inv_2 A VGND VNB VPB VPWR Y
.ends

* Black-box entry subcircuit for sky130_fd_sc_hd__clkbuf_8 abstract view
.subckt sky130_fd_sc_hd__clkbuf_8 A VGND VNB VPB VPWR X
.ends

* Black-box entry subcircuit for sky130_fd_sc_hd__buf_8 abstract view
.subckt sky130_fd_sc_hd__buf_8 A VGND VNB VPB VPWR X
.ends

* Black-box entry subcircuit for sky130_fd_sc_hd__buf_6 abstract view
.subckt sky130_fd_sc_hd__buf_6 A VGND VNB VPB VPWR X
.ends

* Black-box entry subcircuit for sky130_fd_sc_hd__or2_2 abstract view
.subckt sky130_fd_sc_hd__or2_2 A B VGND VNB VPB VPWR X
.ends

* Black-box entry subcircuit for sky130_fd_sc_hd__nand3b_4 abstract view
.subckt sky130_fd_sc_hd__nand3b_4 A_N B C VGND VNB VPB VPWR Y
.ends

* Black-box entry subcircuit for sky130_fd_sc_hd__nand2_1 abstract view
.subckt sky130_fd_sc_hd__nand2_1 A B VGND VNB VPB VPWR Y
.ends

* Black-box entry subcircuit for sky130_fd_sc_hd__nor2_4 abstract view
.subckt sky130_fd_sc_hd__nor2_4 A B VGND VNB VPB VPWR Y
.ends

* Black-box entry subcircuit for sky130_fd_sc_hd__or3_4 abstract view
.subckt sky130_fd_sc_hd__or3_4 A B C VGND VNB VPB VPWR X
.ends

* Black-box entry subcircuit for sky130_fd_sc_hd__and2_2 abstract view
.subckt sky130_fd_sc_hd__and2_2 A B VGND VNB VPB VPWR X
.ends

.subckt RegFile E1BEG[0] E1BEG[1] E1BEG[2] E1BEG[3] E1END[0] E1END[1] E1END[2] E1END[3]
+ E2BEG[0] E2BEG[1] E2BEG[2] E2BEG[3] E2BEG[4] E2BEG[5] E2BEG[6] E2BEG[7] E2BEGb[0]
+ E2BEGb[1] E2BEGb[2] E2BEGb[3] E2BEGb[4] E2BEGb[5] E2BEGb[6] E2BEGb[7] E2END[0] E2END[1]
+ E2END[2] E2END[3] E2END[4] E2END[5] E2END[6] E2END[7] E2MID[0] E2MID[1] E2MID[2]
+ E2MID[3] E2MID[4] E2MID[5] E2MID[6] E2MID[7] E6BEG[0] E6BEG[10] E6BEG[11] E6BEG[1]
+ E6BEG[2] E6BEG[3] E6BEG[4] E6BEG[5] E6BEG[6] E6BEG[7] E6BEG[8] E6BEG[9] E6END[0]
+ E6END[10] E6END[11] E6END[1] E6END[2] E6END[3] E6END[4] E6END[5] E6END[6] E6END[7]
+ E6END[8] E6END[9] EE4BEG[0] EE4BEG[10] EE4BEG[11] EE4BEG[12] EE4BEG[13] EE4BEG[14]
+ EE4BEG[15] EE4BEG[1] EE4BEG[2] EE4BEG[3] EE4BEG[4] EE4BEG[5] EE4BEG[6] EE4BEG[7]
+ EE4BEG[8] EE4BEG[9] EE4END[0] EE4END[10] EE4END[11] EE4END[12] EE4END[13] EE4END[14]
+ EE4END[15] EE4END[1] EE4END[2] EE4END[3] EE4END[4] EE4END[5] EE4END[6] EE4END[7]
+ EE4END[8] EE4END[9] FrameData[0] FrameData[10] FrameData[11] FrameData[12] FrameData[13]
+ FrameData[14] FrameData[15] FrameData[16] FrameData[17] FrameData[18] FrameData[19]
+ FrameData[1] FrameData[20] FrameData[21] FrameData[22] FrameData[23] FrameData[24]
+ FrameData[25] FrameData[26] FrameData[27] FrameData[28] FrameData[29] FrameData[2]
+ FrameData[30] FrameData[31] FrameData[3] FrameData[4] FrameData[5] FrameData[6]
+ FrameData[7] FrameData[8] FrameData[9] FrameData_O[0] FrameData_O[10] FrameData_O[11]
+ FrameData_O[12] FrameData_O[13] FrameData_O[14] FrameData_O[15] FrameData_O[16]
+ FrameData_O[17] FrameData_O[18] FrameData_O[19] FrameData_O[1] FrameData_O[20] FrameData_O[21]
+ FrameData_O[22] FrameData_O[23] FrameData_O[24] FrameData_O[25] FrameData_O[26]
+ FrameData_O[27] FrameData_O[28] FrameData_O[29] FrameData_O[2] FrameData_O[30] FrameData_O[31]
+ FrameData_O[3] FrameData_O[4] FrameData_O[5] FrameData_O[6] FrameData_O[7] FrameData_O[8]
+ FrameData_O[9] FrameStrobe[0] FrameStrobe[10] FrameStrobe[11] FrameStrobe[12] FrameStrobe[13]
+ FrameStrobe[14] FrameStrobe[15] FrameStrobe[16] FrameStrobe[17] FrameStrobe[18]
+ FrameStrobe[19] FrameStrobe[1] FrameStrobe[2] FrameStrobe[3] FrameStrobe[4] FrameStrobe[5]
+ FrameStrobe[6] FrameStrobe[7] FrameStrobe[8] FrameStrobe[9] FrameStrobe_O[0] FrameStrobe_O[10]
+ FrameStrobe_O[11] FrameStrobe_O[12] FrameStrobe_O[13] FrameStrobe_O[14] FrameStrobe_O[15]
+ FrameStrobe_O[16] FrameStrobe_O[17] FrameStrobe_O[18] FrameStrobe_O[19] FrameStrobe_O[1]
+ FrameStrobe_O[2] FrameStrobe_O[3] FrameStrobe_O[4] FrameStrobe_O[5] FrameStrobe_O[6]
+ FrameStrobe_O[7] FrameStrobe_O[8] FrameStrobe_O[9] N1BEG[0] N1BEG[1] N1BEG[2] N1BEG[3]
+ N1END[0] N1END[1] N1END[2] N1END[3] N2BEG[0] N2BEG[1] N2BEG[2] N2BEG[3] N2BEG[4]
+ N2BEG[5] N2BEG[6] N2BEG[7] N2BEGb[0] N2BEGb[1] N2BEGb[2] N2BEGb[3] N2BEGb[4] N2BEGb[5]
+ N2BEGb[6] N2BEGb[7] N2END[0] N2END[1] N2END[2] N2END[3] N2END[4] N2END[5] N2END[6]
+ N2END[7] N2MID[0] N2MID[1] N2MID[2] N2MID[3] N2MID[4] N2MID[5] N2MID[6] N2MID[7]
+ N4BEG[0] N4BEG[10] N4BEG[11] N4BEG[12] N4BEG[13] N4BEG[14] N4BEG[15] N4BEG[1] N4BEG[2]
+ N4BEG[3] N4BEG[4] N4BEG[5] N4BEG[6] N4BEG[7] N4BEG[8] N4BEG[9] N4END[0] N4END[10]
+ N4END[11] N4END[12] N4END[13] N4END[14] N4END[15] N4END[1] N4END[2] N4END[3] N4END[4]
+ N4END[5] N4END[6] N4END[7] N4END[8] N4END[9] NN4BEG[0] NN4BEG[10] NN4BEG[11] NN4BEG[12]
+ NN4BEG[13] NN4BEG[14] NN4BEG[15] NN4BEG[1] NN4BEG[2] NN4BEG[3] NN4BEG[4] NN4BEG[5]
+ NN4BEG[6] NN4BEG[7] NN4BEG[8] NN4BEG[9] NN4END[0] NN4END[10] NN4END[11] NN4END[12]
+ NN4END[13] NN4END[14] NN4END[15] NN4END[1] NN4END[2] NN4END[3] NN4END[4] NN4END[5]
+ NN4END[6] NN4END[7] NN4END[8] NN4END[9] S1BEG[0] S1BEG[1] S1BEG[2] S1BEG[3] S1END[0]
+ S1END[1] S1END[2] S1END[3] S2BEG[0] S2BEG[1] S2BEG[2] S2BEG[3] S2BEG[4] S2BEG[5]
+ S2BEG[6] S2BEG[7] S2BEGb[0] S2BEGb[1] S2BEGb[2] S2BEGb[3] S2BEGb[4] S2BEGb[5] S2BEGb[6]
+ S2BEGb[7] S2END[0] S2END[1] S2END[2] S2END[3] S2END[4] S2END[5] S2END[6] S2END[7]
+ S2MID[0] S2MID[1] S2MID[2] S2MID[3] S2MID[4] S2MID[5] S2MID[6] S2MID[7] S4BEG[0]
+ S4BEG[10] S4BEG[11] S4BEG[12] S4BEG[13] S4BEG[14] S4BEG[15] S4BEG[1] S4BEG[2] S4BEG[3]
+ S4BEG[4] S4BEG[5] S4BEG[6] S4BEG[7] S4BEG[8] S4BEG[9] S4END[0] S4END[10] S4END[11]
+ S4END[12] S4END[13] S4END[14] S4END[15] S4END[1] S4END[2] S4END[3] S4END[4] S4END[5]
+ S4END[6] S4END[7] S4END[8] S4END[9] SS4BEG[0] SS4BEG[10] SS4BEG[11] SS4BEG[12] SS4BEG[13]
+ SS4BEG[14] SS4BEG[15] SS4BEG[1] SS4BEG[2] SS4BEG[3] SS4BEG[4] SS4BEG[5] SS4BEG[6]
+ SS4BEG[7] SS4BEG[8] SS4BEG[9] SS4END[0] SS4END[10] SS4END[11] SS4END[12] SS4END[13]
+ SS4END[14] SS4END[15] SS4END[1] SS4END[2] SS4END[3] SS4END[4] SS4END[5] SS4END[6]
+ SS4END[7] SS4END[8] SS4END[9] UserCLK UserCLKo VGND VPWR W1BEG[0] W1BEG[1] W1BEG[2]
+ W1BEG[3] W1END[0] W1END[1] W1END[2] W1END[3] W2BEG[0] W2BEG[1] W2BEG[2] W2BEG[3]
+ W2BEG[4] W2BEG[5] W2BEG[6] W2BEG[7] W2BEGb[0] W2BEGb[1] W2BEGb[2] W2BEGb[3] W2BEGb[4]
+ W2BEGb[5] W2BEGb[6] W2BEGb[7] W2END[0] W2END[1] W2END[2] W2END[3] W2END[4] W2END[5]
+ W2END[6] W2END[7] W2MID[0] W2MID[1] W2MID[2] W2MID[3] W2MID[4] W2MID[5] W2MID[6]
+ W2MID[7] W6BEG[0] W6BEG[10] W6BEG[11] W6BEG[1] W6BEG[2] W6BEG[3] W6BEG[4] W6BEG[5]
+ W6BEG[6] W6BEG[7] W6BEG[8] W6BEG[9] W6END[0] W6END[10] W6END[11] W6END[1] W6END[2]
+ W6END[3] W6END[4] W6END[5] W6END[6] W6END[7] W6END[8] W6END[9] WW4BEG[0] WW4BEG[10]
+ WW4BEG[11] WW4BEG[12] WW4BEG[13] WW4BEG[14] WW4BEG[15] WW4BEG[1] WW4BEG[2] WW4BEG[3]
+ WW4BEG[4] WW4BEG[5] WW4BEG[6] WW4BEG[7] WW4BEG[8] WW4BEG[9] WW4END[0] WW4END[10]
+ WW4END[11] WW4END[12] WW4END[13] WW4END[14] WW4END[15] WW4END[1] WW4END[2] WW4END[3]
+ WW4END[4] WW4END[5] WW4END[6] WW4END[7] WW4END[8] WW4END[9]
XFILLER_0_49_314 VGND VGND VPWR VPWR sky130_fd_sc_hd__fill_2
XW6END_inbuf_0__0_ net230 VGND VGND VPWR VPWR W6BEG_i\[0\] sky130_fd_sc_hd__clkbuf_2
XTAP_188 VGND VPWR sky130_fd_sc_hd__tapvpwrvgnd_1
XTAP_177 VGND VPWR sky130_fd_sc_hd__tapvpwrvgnd_1
XTAP_199 VGND VPWR sky130_fd_sc_hd__tapvpwrvgnd_1
XFILLER_0_76_122 VGND VGND VPWR VPWR sky130_fd_sc_hd__fill_2
XInst_RegFile_ConfigMem_Inst_frame1_bit9 net80 net92 VGND VGND VPWR VPWR ConfigBits\[359\]
+ Inst_RegFile_ConfigMem_Inst_frame1_bit9/Q_N sky130_fd_sc_hd__dlxbp_1
XFILLER_0_43_81 VGND VGND VPWR VPWR sky130_fd_sc_hd__decap_3
XFILLER_0_17_222 VGND VGND VPWR VPWR sky130_fd_sc_hd__fill_2
XFILLER_0_17_255 VGND VGND VPWR VPWR sky130_fd_sc_hd__fill_1
XFILLER_0_32_236 VGND VGND VPWR VPWR sky130_fd_sc_hd__fill_1
XFILLER_0_13_461 VGND VGND VPWR VPWR sky130_fd_sc_hd__decap_8
XInst_RegFile_ConfigMem_Inst_frame11_bit5 net76 net83 VGND VGND VPWR VPWR ConfigBits\[35\]
+ Inst_RegFile_ConfigMem_Inst_frame11_bit5/Q_N sky130_fd_sc_hd__dlxbp_1
XFILLER_0_23_225 VGND VGND VPWR VPWR sky130_fd_sc_hd__fill_1
XFILLER_0_48_48 VGND VGND VPWR VPWR sky130_ef_sc_hd__decap_12
XInst_RegFile_ConfigMem_Inst_frame7_bit18 net58 net98 VGND VGND VPWR VPWR ConfigBits\[176\]
+ Inst_RegFile_ConfigMem_Inst_frame7_bit18/Q_N sky130_fd_sc_hd__dlxbp_1
XInst_RegFile_ConfigMem_Inst_frame0_bit31 net73 net81 VGND VGND VPWR VPWR ConfigBits\[413\]
+ Inst_RegFile_ConfigMem_Inst_frame0_bit31/Q_N sky130_fd_sc_hd__dlxbp_1
XFILLER_0_11_409 VGND VGND VPWR VPWR sky130_ef_sc_hd__decap_12
XInst_RegFile_ConfigMem_Inst_frame0_bit20 net61 net81 VGND VGND VPWR VPWR ConfigBits\[402\]
+ Inst_RegFile_ConfigMem_Inst_frame0_bit20/Q_N sky130_fd_sc_hd__dlxbp_1
XInst_RegFile_switch_matrix_inst_cus_mux161_buf_W6BEG1_cus_mux41_buf_inst4 Inst_RegFile_switch_matrix_inst_cus_mux161_buf_W6BEG1_cus_mux41_buf_inst0/X
+ Inst_RegFile_switch_matrix_inst_cus_mux161_buf_W6BEG1_cus_mux41_buf_inst1/X Inst_RegFile_switch_matrix_inst_cus_mux161_buf_W6BEG1_cus_mux41_buf_inst2/X
+ Inst_RegFile_switch_matrix_inst_cus_mux161_buf_W6BEG1_cus_mux41_buf_inst3/X ConfigBits\[112\]
+ ConfigBits\[113\] VGND VGND VPWR VPWR net481 sky130_fd_sc_hd__mux4_1
XFILLER_0_3_17 VGND VGND VPWR VPWR sky130_ef_sc_hd__decap_12
XInst_RegFile_switch_matrix_inst_cus_mux161_buf_JS2BEG3_cus_mux41_buf_inst4 Inst_RegFile_switch_matrix_inst_cus_mux161_buf_JS2BEG3_cus_mux41_buf_inst0/X
+ Inst_RegFile_switch_matrix_inst_cus_mux161_buf_JS2BEG3_cus_mux41_buf_inst1/X Inst_RegFile_switch_matrix_inst_cus_mux161_buf_JS2BEG3_cus_mux41_buf_inst2/X
+ Inst_RegFile_switch_matrix_inst_cus_mux161_buf_JS2BEG3_cus_mux41_buf_inst3/X ConfigBits\[332\]
+ ConfigBits\[333\] VGND VGND VPWR VPWR JS2BEG\[3\] sky130_fd_sc_hd__mux4_2
XInst_RegFile_ConfigMem_Inst_frame7_bit29 net70 net98 VGND VGND VPWR VPWR ConfigBits\[187\]
+ Inst_RegFile_ConfigMem_Inst_frame7_bit29/Q_N sky130_fd_sc_hd__dlxbp_1
XFILLER_0_73_169 VGND VGND VPWR VPWR sky130_ef_sc_hd__decap_12
XFILLER_0_73_125 VGND VGND VPWR VPWR sky130_ef_sc_hd__decap_12
XFILLER_0_58_111 VGND VGND VPWR VPWR sky130_fd_sc_hd__fill_2
XWW4END_inbuf_10__0_ net243 VGND VGND VPWR VPWR WW4BEG_i\[10\] sky130_fd_sc_hd__clkbuf_2
Xoutput401 net401 VGND VGND VPWR VPWR NN4BEG[5] sky130_fd_sc_hd__buf_2
XInst_RegFile_32x4__1431_ net205 Inst_RegFile_32x4/_0083_ VGND VGND VPWR VPWR Inst_RegFile_32x4__1431_/Q
+ sky130_fd_sc_hd__dfxtp_1
XInst_RegFile_32x4__1362_ net205 Inst_RegFile_32x4/_0022_ VGND VGND VPWR VPWR Inst_RegFile_32x4__1362_/Q
+ sky130_fd_sc_hd__dfxtp_1
Xoutput434 net434 VGND VGND VPWR VPWR S4BEG[2] sky130_fd_sc_hd__buf_2
Xoutput412 net412 VGND VGND VPWR VPWR S2BEG[2] sky130_fd_sc_hd__clkbuf_4
Xoutput423 net423 VGND VGND VPWR VPWR S2BEGb[5] sky130_fd_sc_hd__buf_2
XFILLER_0_6_436 VGND VGND VPWR VPWR sky130_ef_sc_hd__decap_12
XInst_RegFile_32x4__1293_ Inst_RegFile_32x4__1455_/Q Inst_RegFile_32x4/_0598_ Inst_RegFile_32x4/_0632_
+ VGND VGND VPWR VPWR Inst_RegFile_32x4/_0636_ sky130_fd_sc_hd__mux2_1
XInst_RegFile_switch_matrix__01_ JE2BEG\[1\] VGND VGND VPWR VPWR net259 sky130_fd_sc_hd__buf_1
Xoutput489 net489 VGND VGND VPWR VPWR W6BEG[8] sky130_fd_sc_hd__clkbuf_4
Xoutput445 net445 VGND VGND VPWR VPWR SS4BEG[12] sky130_fd_sc_hd__clkbuf_4
Xoutput456 net456 VGND VGND VPWR VPWR SS4BEG[8] sky130_fd_sc_hd__clkbuf_4
Xoutput467 net467 VGND VGND VPWR VPWR W2BEG[4] sky130_fd_sc_hd__clkbuf_4
XFILLER_0_10_442 VGND VGND VPWR VPWR sky130_ef_sc_hd__decap_12
Xoutput478 net478 VGND VGND VPWR VPWR W2BEGb[7] sky130_fd_sc_hd__clkbuf_4
XN4BEG_outbuf_11__0_ N4BEG_i\[11\] VGND VGND VPWR VPWR net376 sky130_fd_sc_hd__clkbuf_1
XFILLER_0_49_111 VGND VGND VPWR VPWR sky130_fd_sc_hd__fill_1
XFILLER_0_72_180 VGND VGND VPWR VPWR sky130_fd_sc_hd__fill_1
XFILLER_0_52_309 VGND VGND VPWR VPWR sky130_fd_sc_hd__decap_8
XFILLER_0_9_263 VGND VGND VPWR VPWR sky130_fd_sc_hd__fill_2
XFILLER_0_60_353 VGND VGND VPWR VPWR sky130_fd_sc_hd__decap_8
XInst_RegFile_ConfigMem_Inst_frame3_bit24 net65 net94 VGND VGND VPWR VPWR ConfigBits\[310\]
+ Inst_RegFile_ConfigMem_Inst_frame3_bit24/Q_N sky130_fd_sc_hd__dlxbp_1
XInst_RegFile_ConfigMem_Inst_frame3_bit13 net53 net94 VGND VGND VPWR VPWR ConfigBits\[299\]
+ Inst_RegFile_ConfigMem_Inst_frame3_bit13/Q_N sky130_fd_sc_hd__dlxbp_1
XFILLER_0_55_125 VGND VGND VPWR VPWR sky130_fd_sc_hd__decap_3
XS4END_inbuf_9__0_ net177 VGND VGND VPWR VPWR S4BEG_i\[9\] sky130_fd_sc_hd__clkbuf_2
XFILLER_0_70_117 VGND VGND VPWR VPWR sky130_fd_sc_hd__fill_2
XFILLER_0_55_169 VGND VGND VPWR VPWR sky130_fd_sc_hd__decap_8
XFILLER_0_51_397 VGND VGND VPWR VPWR sky130_fd_sc_hd__fill_1
XFILLER_0_36_361 VGND VGND VPWR VPWR sky130_fd_sc_hd__decap_3
XFILLER_0_75_57 VGND VGND VPWR VPWR sky130_fd_sc_hd__decap_6
XInst_RegFile_32x4__0931_ Inst_RegFile_32x4/_0385_ VGND VGND VPWR VPWR BD1 sky130_fd_sc_hd__buf_12
XInst_RegFile_32x4__0793_ Inst_RegFile_32x4__1407_/Q Inst_RegFile_32x4__1383_/Q Inst_RegFile_32x4/_0137_
+ VGND VGND VPWR VPWR Inst_RegFile_32x4/_0256_ sky130_fd_sc_hd__mux2_1
XInst_RegFile_32x4__0862_ Inst_RegFile_32x4/_0302_ Inst_RegFile_32x4/_0318_ Inst_RegFile_32x4/_0319_
+ VGND VGND VPWR VPWR Inst_RegFile_32x4/_0320_ sky130_fd_sc_hd__a21o_1
XFILLER_0_34_309 VGND VGND VPWR VPWR sky130_fd_sc_hd__decap_4
XFILLER_0_6_244 VGND VGND VPWR VPWR sky130_fd_sc_hd__decap_8
Xoutput275 net275 VGND VGND VPWR VPWR E6BEG[10] sky130_fd_sc_hd__clkbuf_4
XInst_RegFile_32x4__1414_ net205 Inst_RegFile_32x4/_0066_ VGND VGND VPWR VPWR Inst_RegFile_32x4__1414_/Q
+ sky130_fd_sc_hd__dfxtp_1
Xoutput286 net286 VGND VGND VPWR VPWR EE4BEG[0] sky130_fd_sc_hd__clkbuf_4
Xoutput264 net264 VGND VGND VPWR VPWR E2BEG[6] sky130_fd_sc_hd__clkbuf_4
XInst_RegFile_32x4__1345_ net205 Inst_RegFile_32x4/_0005_ VGND VGND VPWR VPWR Inst_RegFile_32x4__1345_/Q
+ sky130_fd_sc_hd__dfxtp_1
Xoutput297 net297 VGND VGND VPWR VPWR EE4BEG[5] sky130_fd_sc_hd__clkbuf_4
XInst_RegFile_32x4__1276_ Inst_RegFile_32x4/_0453_ Inst_RegFile_32x4/_0454_ Inst_RegFile_32x4/_0452_
+ VGND VGND VPWR VPWR Inst_RegFile_32x4/_0626_ sky130_fd_sc_hd__or3b_4
XFILLER_0_4_82 VGND VGND VPWR VPWR sky130_fd_sc_hd__fill_2
XFILLER_0_10_294 VGND VGND VPWR VPWR sky130_ef_sc_hd__decap_12
XFILLER_0_77_250 VGND VGND VPWR VPWR sky130_fd_sc_hd__fill_2
XInst_RegFile_switch_matrix_inst_cus_mux41_buf_J2END_EF_BEG0 net112 net41 net164 net217
+ ConfigBits\[238\] ConfigBits\[239\] VGND VGND VPWR VPWR J2END_EF_BEG\[0\] sky130_fd_sc_hd__mux4_1
XInst_RegFile_ConfigMem_Inst_frame7_bit4 net75 net98 VGND VGND VPWR VPWR ConfigBits\[162\]
+ Inst_RegFile_ConfigMem_Inst_frame7_bit4/Q_N sky130_fd_sc_hd__dlxbp_1
XFILLER_0_65_478 VGND VGND VPWR VPWR sky130_fd_sc_hd__fill_2
XInst_RegFile_ConfigMem_Inst_frame6_bit17 net57 net97 VGND VGND VPWR VPWR ConfigBits\[207\]
+ Inst_RegFile_ConfigMem_Inst_frame6_bit17/Q_N sky130_fd_sc_hd__dlxbp_1
XFILLER_0_37_169 VGND VGND VPWR VPWR sky130_fd_sc_hd__decap_6
XFILLER_0_33_342 VGND VGND VPWR VPWR sky130_fd_sc_hd__fill_2
XFILLER_0_33_320 VGND VGND VPWR VPWR sky130_fd_sc_hd__fill_2
XInst_RegFile_ConfigMem_Inst_frame6_bit28 net69 net97 VGND VGND VPWR VPWR ConfigBits\[218\]
+ Inst_RegFile_ConfigMem_Inst_frame6_bit28/Q_N sky130_fd_sc_hd__dlxbp_1
XFILLER_0_18_350 VGND VGND VPWR VPWR sky130_fd_sc_hd__fill_2
XFILLER_0_0_29 VGND VGND VPWR VPWR sky130_fd_sc_hd__fill_1
XFILLER_0_16_309 VGND VGND VPWR VPWR sky130_ef_sc_hd__decap_12
XInst_RegFile_32x4__1130_ Inst_RegFile_32x4__1380_/Q Inst_RegFile_32x4/_0524_ Inst_RegFile_32x4/_0539_
+ VGND VGND VPWR VPWR Inst_RegFile_32x4/_0540_ sky130_fd_sc_hd__mux2_1
XFILLER_0_24_397 VGND VGND VPWR VPWR sky130_ef_sc_hd__decap_12
XFILLER_0_10_85 VGND VGND VPWR VPWR sky130_ef_sc_hd__decap_12
XInst_RegFile_32x4__1061_ Inst_RegFile_32x4/_0497_ VGND VGND VPWR VPWR Inst_RegFile_32x4/_0013_
+ sky130_fd_sc_hd__clkbuf_1
XInst_RegFile_32x4__0914_ Inst_RegFile_32x4/_0313_ Inst_RegFile_32x4/_0369_ VGND VGND
+ VPWR VPWR Inst_RegFile_32x4/_0370_ sky130_fd_sc_hd__and2b_1
XInst_RegFile_32x4__0845_ Inst_RegFile_32x4/_0291_ VGND VGND VPWR VPWR Inst_RegFile_32x4/_0303_
+ sky130_fd_sc_hd__clkbuf_2
XFILLER_0_74_253 VGND VGND VPWR VPWR sky130_ef_sc_hd__decap_12
XInst_RegFile_32x4__0776_ Inst_RegFile_32x4__1450_/Q Inst_RegFile_32x4__1474_/Q Inst_RegFile_32x4/_0156_
+ VGND VGND VPWR VPWR Inst_RegFile_32x4/_0240_ sky130_fd_sc_hd__mux2_1
XInst_RegFile_ConfigMem_Inst_frame2_bit23 net64 net93 VGND VGND VPWR VPWR ConfigBits\[341\]
+ Inst_RegFile_ConfigMem_Inst_frame2_bit23/Q_N sky130_fd_sc_hd__dlxbp_1
XFILLER_0_27_191 VGND VGND VPWR VPWR sky130_ef_sc_hd__decap_12
XInst_RegFile_ConfigMem_Inst_frame2_bit12 net52 net93 VGND VGND VPWR VPWR ConfigBits\[330\]
+ Inst_RegFile_ConfigMem_Inst_frame2_bit12/Q_N sky130_fd_sc_hd__dlxbp_1
XFILLER_0_19_169 VGND VGND VPWR VPWR sky130_fd_sc_hd__decap_8
XInst_RegFile_32x4__1259_ Inst_RegFile_32x4__1440_/Q Inst_RegFile_32x4/_0591_ Inst_RegFile_32x4/_0616_
+ VGND VGND VPWR VPWR Inst_RegFile_32x4/_0617_ sky130_fd_sc_hd__mux2_1
XInst_RegFile_32x4__1328_ Inst_RegFile_32x4/_0655_ VGND VGND VPWR VPWR Inst_RegFile_32x4/_0122_
+ sky130_fd_sc_hd__clkbuf_1
XFILLER_0_65_253 VGND VGND VPWR VPWR sky130_fd_sc_hd__fill_2
XInst_RegFile_switch_matrix_inst_cus_mux81_buf_B_ADR4_my_mux2_inst__1_ Inst_RegFile_switch_matrix_inst_cus_mux81_buf_B_ADR4_my_mux2_inst__1_/A0
+ Inst_RegFile_switch_matrix_inst_cus_mux81_buf_B_ADR4_my_mux2_inst__1_/A1 ConfigBits\[135\]
+ VGND VGND VPWR VPWR Inst_RegFile_switch_matrix_inst_cus_mux81_buf_B_ADR4_my_mux2_inst__2_/A
+ sky130_fd_sc_hd__mux2_1
XFILLER_0_25_128 VGND VGND VPWR VPWR sky130_fd_sc_hd__decap_8
XTAP_507 VGND VPWR sky130_fd_sc_hd__tapvpwrvgnd_1
XFILLER_0_21_345 VGND VGND VPWR VPWR sky130_fd_sc_hd__fill_1
XFILLER_0_21_312 VGND VGND VPWR VPWR sky130_fd_sc_hd__decap_6
XTAP_529 VGND VPWR sky130_fd_sc_hd__tapvpwrvgnd_1
XTAP_518 VGND VPWR sky130_fd_sc_hd__tapvpwrvgnd_1
XFILLER_0_72_25 VGND VGND VPWR VPWR sky130_fd_sc_hd__decap_3
Xdata_inbuf_20__0_ net61 VGND VGND VPWR VPWR FrameData_O_i\[20\] sky130_fd_sc_hd__buf_1
XFILLER_0_48_209 VGND VGND VPWR VPWR sky130_fd_sc_hd__fill_1
XFILLER_0_29_401 VGND VGND VPWR VPWR sky130_fd_sc_hd__decap_3
XFILLER_0_71_278 VGND VGND VPWR VPWR sky130_fd_sc_hd__fill_2
XFILLER_0_56_253 VGND VGND VPWR VPWR sky130_ef_sc_hd__decap_12
XInst_RegFile_32x4__1113_ Inst_RegFile_32x4/_0529_ VGND VGND VPWR VPWR Inst_RegFile_32x4/_0033_
+ sky130_fd_sc_hd__clkbuf_1
XInst_RegFile_ConfigMem_Inst_frame5_bit27 net68 net96 VGND VGND VPWR VPWR ConfigBits\[249\]
+ Inst_RegFile_ConfigMem_Inst_frame5_bit27/Q_N sky130_fd_sc_hd__dlxbp_1
XInst_RegFile_ConfigMem_Inst_frame5_bit16 net56 net96 VGND VGND VPWR VPWR ConfigBits\[238\]
+ Inst_RegFile_ConfigMem_Inst_frame5_bit16/Q_N sky130_fd_sc_hd__dlxbp_1
XInst_RegFile_32x4__1044_ Inst_RegFile_32x4/_0483_ Inst_RegFile_32x4/_0485_ VGND VGND
+ VPWR VPWR Inst_RegFile_32x4/_0486_ sky130_fd_sc_hd__nor2_2
XFILLER_0_62_223 VGND VGND VPWR VPWR sky130_fd_sc_hd__decap_3
Xdata_inbuf_11__0_ net51 VGND VGND VPWR VPWR FrameData_O_i\[11\] sky130_fd_sc_hd__buf_1
XInst_RegFile_32x4__0828_ Inst_RegFile_32x4/_0287_ VGND VGND VPWR VPWR AD2 sky130_fd_sc_hd__buf_12
XInst_RegFile_switch_matrix_inst_cus_mux161_buf_JN2BEG1_cus_mux41_buf_inst0 net107
+ net129 net1 net7 ConfigBits\[258\] ConfigBits\[259\] VGND VGND VPWR VPWR Inst_RegFile_switch_matrix_inst_cus_mux161_buf_JN2BEG1_cus_mux41_buf_inst0/X
+ sky130_fd_sc_hd__mux4_1
XInst_RegFile_ConfigMem_Inst_frame4_bit7 net78 net95 VGND VGND VPWR VPWR ConfigBits\[261\]
+ Inst_RegFile_ConfigMem_Inst_frame4_bit7/Q_N sky130_fd_sc_hd__dlxbp_1
XFILLER_0_1_50 VGND VGND VPWR VPWR sky130_fd_sc_hd__decap_6
XInst_RegFile_32x4__0759_ Inst_RegFile_32x4__1358_/Q Inst_RegFile_32x4__1446_/Q Inst_RegFile_32x4/_0131_
+ VGND VGND VPWR VPWR Inst_RegFile_32x4/_0223_ sky130_fd_sc_hd__mux2_1
XFILLER_0_30_131 VGND VGND VPWR VPWR sky130_fd_sc_hd__decap_8
XFILLER_0_30_197 VGND VGND VPWR VPWR sky130_fd_sc_hd__decap_8
XFILLER_0_30_175 VGND VGND VPWR VPWR sky130_fd_sc_hd__decap_6
XFILLER_0_53_278 VGND VGND VPWR VPWR sky130_fd_sc_hd__fill_2
XFILLER_0_53_223 VGND VGND VPWR VPWR sky130_fd_sc_hd__fill_1
XFILLER_0_41_407 VGND VGND VPWR VPWR sky130_fd_sc_hd__decap_6
XFILLER_0_38_286 VGND VGND VPWR VPWR sky130_fd_sc_hd__fill_2
XANTENNA_5 J2MID_CDa_BEG\[2\] VGND VGND VPWR VPWR sky130_fd_sc_hd__diode_2
XTAP_348 VGND VPWR sky130_fd_sc_hd__tapvpwrvgnd_1
XTAP_304 VGND VPWR sky130_fd_sc_hd__tapvpwrvgnd_1
XTAP_315 VGND VPWR sky130_fd_sc_hd__tapvpwrvgnd_1
XTAP_326 VGND VPWR sky130_fd_sc_hd__tapvpwrvgnd_1
XTAP_337 VGND VPWR sky130_fd_sc_hd__tapvpwrvgnd_1
XInst_RegFile_ConfigMem_Inst_frame1_bit11 net51 net92 VGND VGND VPWR VPWR ConfigBits\[361\]
+ Inst_RegFile_ConfigMem_Inst_frame1_bit11/Q_N sky130_fd_sc_hd__dlxbp_1
XInst_RegFile_ConfigMem_Inst_frame1_bit22 net63 net92 VGND VGND VPWR VPWR ConfigBits\[372\]
+ Inst_RegFile_ConfigMem_Inst_frame1_bit22/Q_N sky130_fd_sc_hd__dlxbp_1
XTAP_359 VGND VPWR sky130_fd_sc_hd__tapvpwrvgnd_1
XFILLER_0_44_212 VGND VGND VPWR VPWR sky130_fd_sc_hd__fill_2
XFILLER_0_29_220 VGND VGND VPWR VPWR sky130_fd_sc_hd__decap_4
XFILLER_0_32_418 VGND VGND VPWR VPWR sky130_fd_sc_hd__fill_2
XInst_RegFile_switch_matrix_inst_cus_mux41_buf_S4BEG3 net158 net173 net226 AD3 ConfigBits\[72\]
+ ConfigBits\[73\] VGND VGND VPWR VPWR net432 sky130_fd_sc_hd__mux4_2
XFILLER_0_12_197 VGND VGND VPWR VPWR sky130_fd_sc_hd__decap_8
XFILLER_0_67_326 VGND VGND VPWR VPWR sky130_fd_sc_hd__fill_1
XInst_RegFile_32x4__1027_ Inst_RegFile_32x4/_0472_ VGND VGND VPWR VPWR Inst_RegFile_32x4/_0473_
+ sky130_fd_sc_hd__clkbuf_4
XFILLER_0_35_212 VGND VGND VPWR VPWR sky130_ef_sc_hd__decap_12
XFILLER_0_50_248 VGND VGND VPWR VPWR sky130_fd_sc_hd__decap_4
Xinput197 SS4END[2] VGND VGND VPWR VPWR net197 sky130_fd_sc_hd__buf_2
Xinput186 S4END[7] VGND VGND VPWR VPWR net186 sky130_fd_sc_hd__clkbuf_1
Xinput175 S4END[11] VGND VGND VPWR VPWR net175 sky130_fd_sc_hd__clkbuf_1
Xinput164 S2END[7] VGND VGND VPWR VPWR net164 sky130_fd_sc_hd__buf_2
Xinput153 S1END[0] VGND VGND VPWR VPWR net153 sky130_fd_sc_hd__clkbuf_4
XFILLER_0_37_39 VGND VGND VPWR VPWR sky130_fd_sc_hd__fill_2
Xinput131 N4END[4] VGND VGND VPWR VPWR net131 sky130_fd_sc_hd__clkbuf_1
Xinput142 NN4END[14] VGND VGND VPWR VPWR net142 sky130_fd_sc_hd__clkbuf_1
Xinput120 N2MID[7] VGND VGND VPWR VPWR net120 sky130_fd_sc_hd__buf_4
Xstrobe_outbuf_14__0_ FrameStrobe_O_i\[14\] VGND VGND VPWR VPWR net339 sky130_fd_sc_hd__clkbuf_1
XFILLER_0_73_329 VGND VGND VPWR VPWR sky130_fd_sc_hd__decap_6
XInst_RegFile_switch_matrix_inst_cus_mux161_buf_JN2BEG6_cus_mux41_buf_inst4 Inst_RegFile_switch_matrix_inst_cus_mux161_buf_JN2BEG6_cus_mux41_buf_inst0/X
+ Inst_RegFile_switch_matrix_inst_cus_mux161_buf_JN2BEG6_cus_mux41_buf_inst1/X Inst_RegFile_switch_matrix_inst_cus_mux161_buf_JN2BEG6_cus_mux41_buf_inst2/X
+ Inst_RegFile_switch_matrix_inst_cus_mux161_buf_JN2BEG6_cus_mux41_buf_inst3/X ConfigBits\[280\]
+ ConfigBits\[281\] VGND VGND VPWR VPWR JN2BEG\[6\] sky130_fd_sc_hd__mux4_2
XInst_RegFile_ConfigMem_Inst_frame4_bit26 net67 net95 VGND VGND VPWR VPWR ConfigBits\[280\]
+ Inst_RegFile_ConfigMem_Inst_frame4_bit26/Q_N sky130_fd_sc_hd__dlxbp_1
Xdata_outbuf_9__0_ FrameData_O_i\[9\] VGND VGND VPWR VPWR net333 sky130_fd_sc_hd__clkbuf_1
XFILLER_0_41_204 VGND VGND VPWR VPWR sky130_fd_sc_hd__decap_4
XFILLER_0_1_334 VGND VGND VPWR VPWR sky130_fd_sc_hd__fill_2
XFILLER_0_1_312 VGND VGND VPWR VPWR sky130_fd_sc_hd__fill_1
XInst_RegFile_ConfigMem_Inst_frame4_bit15 net55 net95 VGND VGND VPWR VPWR ConfigBits\[269\]
+ Inst_RegFile_ConfigMem_Inst_frame4_bit15/Q_N sky130_fd_sc_hd__dlxbp_1
XFILLER_0_68_9 VGND VGND VPWR VPWR sky130_fd_sc_hd__fill_1
XTAP_189 VGND VPWR sky130_fd_sc_hd__tapvpwrvgnd_1
XTAP_167 VGND VPWR sky130_fd_sc_hd__tapvpwrvgnd_1
XTAP_178 VGND VPWR sky130_fd_sc_hd__tapvpwrvgnd_1
XTAP_156 VGND VPWR sky130_fd_sc_hd__tapvpwrvgnd_1
XFILLER_0_76_101 VGND VGND VPWR VPWR sky130_fd_sc_hd__fill_2
XFILLER_0_49_348 VGND VGND VPWR VPWR sky130_ef_sc_hd__decap_12
XFILLER_0_27_50 VGND VGND VPWR VPWR sky130_fd_sc_hd__fill_2
XFILLER_0_57_381 VGND VGND VPWR VPWR sky130_fd_sc_hd__decap_3
XFILLER_0_4_183 VGND VGND VPWR VPWR sky130_ef_sc_hd__decap_12
XTAP_690 VGND VPWR sky130_fd_sc_hd__tapvpwrvgnd_1
XInst_RegFile_ConfigMem_Inst_frame11_bit6 net77 net83 VGND VGND VPWR VPWR ConfigBits\[36\]
+ Inst_RegFile_ConfigMem_Inst_frame11_bit6/Q_N sky130_fd_sc_hd__dlxbp_1
XFILLER_0_55_329 VGND VGND VPWR VPWR sky130_fd_sc_hd__decap_6
XWW4END_inbuf_5__0_ net253 VGND VGND VPWR VPWR WW4BEG_i\[5\] sky130_fd_sc_hd__clkbuf_2
XFILLER_0_63_362 VGND VGND VPWR VPWR sky130_fd_sc_hd__fill_1
XInst_RegFile_switch_matrix_inst_cus_mux81_buf_EE4BEG0_cus_mux41_buf_inst0 net103
+ net3 net155 AD1 ConfigBits\[38\] ConfigBits\[39\] VGND VGND VPWR VPWR Inst_RegFile_switch_matrix_inst_cus_mux81_buf_EE4BEG0_my_mux2_inst__1_/A0
+ sky130_fd_sc_hd__mux4_1
XInst_RegFile_ConfigMem_Inst_frame0_bit21 net62 net81 VGND VGND VPWR VPWR ConfigBits\[403\]
+ Inst_RegFile_ConfigMem_Inst_frame0_bit21/Q_N sky130_fd_sc_hd__dlxbp_1
XInst_RegFile_ConfigMem_Inst_frame0_bit10 net50 net81 VGND VGND VPWR VPWR ConfigBits\[392\]
+ Inst_RegFile_ConfigMem_Inst_frame0_bit10/Q_N sky130_fd_sc_hd__dlxbp_1
XFILLER_0_48_27 VGND VGND VPWR VPWR sky130_fd_sc_hd__fill_1
XInst_RegFile_ConfigMem_Inst_frame7_bit19 net59 net98 VGND VGND VPWR VPWR ConfigBits\[177\]
+ Inst_RegFile_ConfigMem_Inst_frame7_bit19/Q_N sky130_fd_sc_hd__dlxbp_1
XFILLER_0_31_281 VGND VGND VPWR VPWR sky130_fd_sc_hd__decap_4
XFILLER_0_64_26 VGND VGND VPWR VPWR sky130_fd_sc_hd__fill_2