* NGSPICE file created from S_term_DSP.ext - technology: sky130A

* Black-box entry subcircuit for sky130_ef_sc_hd__decap_12 abstract view
.subckt sky130_ef_sc_hd__decap_12 VGND VNB VPB VPWR
.ends

* Black-box entry subcircuit for sky130_fd_sc_hd__decap_4 abstract view
.subckt sky130_fd_sc_hd__decap_4 VGND VNB VPB VPWR
.ends

* Black-box entry subcircuit for sky130_fd_sc_hd__decap_3 abstract view
.subckt sky130_fd_sc_hd__decap_3 VGND VNB VPB VPWR
.ends

* Black-box entry subcircuit for sky130_fd_sc_hd__buf_1 abstract view
.subckt sky130_fd_sc_hd__buf_1 A VGND VNB VPB VPWR X
.ends

* Black-box entry subcircuit for sky130_fd_sc_hd__decap_6 abstract view
.subckt sky130_fd_sc_hd__decap_6 VGND VNB VPB VPWR
.ends

* Black-box entry subcircuit for sky130_fd_sc_hd__decap_8 abstract view
.subckt sky130_fd_sc_hd__decap_8 VGND VNB VPB VPWR
.ends

* Black-box entry subcircuit for sky130_fd_sc_hd__clkbuf_4 abstract view
.subckt sky130_fd_sc_hd__clkbuf_4 A VGND VNB VPB VPWR X
.ends

* Black-box entry subcircuit for sky130_fd_sc_hd__clkbuf_1 abstract view
.subckt sky130_fd_sc_hd__clkbuf_1 A VGND VNB VPB VPWR X
.ends

* Black-box entry subcircuit for sky130_fd_sc_hd__tapvpwrvgnd_1 abstract view
.subckt sky130_fd_sc_hd__tapvpwrvgnd_1 VGND VPWR
.ends

* Black-box entry subcircuit for sky130_fd_sc_hd__fill_2 abstract view
.subckt sky130_fd_sc_hd__fill_2 VGND VNB VPB VPWR
.ends

* Black-box entry subcircuit for sky130_fd_sc_hd__fill_1 abstract view
.subckt sky130_fd_sc_hd__fill_1 VGND VNB VPB VPWR
.ends

* Black-box entry subcircuit for sky130_fd_sc_hd__buf_2 abstract view
.subckt sky130_fd_sc_hd__buf_2 A VGND VNB VPB VPWR X
.ends

.subckt S_term_DSP FrameStrobe[0] FrameStrobe[10] FrameStrobe[11] FrameStrobe[12]
+ FrameStrobe[13] FrameStrobe[14] FrameStrobe[15] FrameStrobe[16] FrameStrobe[17]
+ FrameStrobe[18] FrameStrobe[19] FrameStrobe[1] FrameStrobe[2] FrameStrobe[3] FrameStrobe[4]
+ FrameStrobe[5] FrameStrobe[6] FrameStrobe[7] FrameStrobe[8] FrameStrobe[9] FrameStrobe_O[0]
+ FrameStrobe_O[10] FrameStrobe_O[11] FrameStrobe_O[12] FrameStrobe_O[13] FrameStrobe_O[14]
+ FrameStrobe_O[15] FrameStrobe_O[16] FrameStrobe_O[17] FrameStrobe_O[18] FrameStrobe_O[19]
+ FrameStrobe_O[1] FrameStrobe_O[2] FrameStrobe_O[3] FrameStrobe_O[4] FrameStrobe_O[5]
+ FrameStrobe_O[6] FrameStrobe_O[7] FrameStrobe_O[8] FrameStrobe_O[9] N1BEG[0] N1BEG[1]
+ N1BEG[2] N1BEG[3] N2BEG[0] N2BEG[1] N2BEG[2] N2BEG[3] N2BEG[4] N2BEG[5] N2BEG[6]
+ N2BEG[7] N2BEGb[0] N2BEGb[1] N2BEGb[2] N2BEGb[3] N2BEGb[4] N2BEGb[5] N2BEGb[6] N2BEGb[7]
+ N4BEG[0] N4BEG[10] N4BEG[11] N4BEG[12] N4BEG[13] N4BEG[14] N4BEG[15] N4BEG[1] N4BEG[2]
+ N4BEG[3] N4BEG[4] N4BEG[5] N4BEG[6] N4BEG[7] N4BEG[8] N4BEG[9] NN4BEG[0] NN4BEG[10]
+ NN4BEG[11] NN4BEG[12] NN4BEG[13] NN4BEG[14] NN4BEG[15] NN4BEG[1] NN4BEG[2] NN4BEG[3]
+ NN4BEG[4] NN4BEG[5] NN4BEG[6] NN4BEG[7] NN4BEG[8] NN4BEG[9] S1END[0] S1END[1] S1END[2]
+ S1END[3] S2END[0] S2END[1] S2END[2] S2END[3] S2END[4] S2END[5] S2END[6] S2END[7]
+ S2MID[0] S2MID[1] S2MID[2] S2MID[3] S2MID[4] S2MID[5] S2MID[6] S2MID[7] S4END[0]
+ S4END[10] S4END[11] S4END[12] S4END[13] S4END[14] S4END[15] S4END[1] S4END[2] S4END[3]
+ S4END[4] S4END[5] S4END[6] S4END[7] S4END[8] S4END[9] SS4END[0] SS4END[10] SS4END[11]
+ SS4END[12] SS4END[13] SS4END[14] SS4END[15] SS4END[1] SS4END[2] SS4END[3] SS4END[4]
+ SS4END[5] SS4END[6] SS4END[7] SS4END[8] SS4END[9] UserCLK UserCLKo vccd1 vssd1
XFILLER_0_7_81 vssd1 vssd1 vccd1 vccd1 sky130_ef_sc_hd__decap_12
XFILLER_0_3_39 vssd1 vssd1 vccd1 vccd1 sky130_ef_sc_hd__decap_12
XFILLER_0_11_228 vssd1 vssd1 vccd1 vccd1 sky130_fd_sc_hd__decap_4
XFILLER_0_3_417 vssd1 vssd1 vccd1 vccd1 sky130_fd_sc_hd__decap_3
XInst_S_term_DSP_switch_matrix__10_ net30 vssd1 vssd1 vccd1 vccd1 net108 sky130_fd_sc_hd__buf_1
XFILLER_0_10_85 vssd1 vssd1 vccd1 vccd1 sky130_ef_sc_hd__decap_12
XFILLER_0_10_41 vssd1 vssd1 vccd1 vccd1 sky130_ef_sc_hd__decap_12
XFILLER_0_9_27 vssd1 vssd1 vccd1 vccd1 sky130_ef_sc_hd__decap_12
XFILLER_0_0_29 vssd1 vssd1 vccd1 vccd1 sky130_ef_sc_hd__decap_12
XFILLER_0_0_18 vssd1 vssd1 vccd1 vccd1 sky130_fd_sc_hd__decap_6
XFILLER_0_3_225 vssd1 vssd1 vccd1 vccd1 sky130_fd_sc_hd__decap_8
XFILLER_0_12_345 vssd1 vssd1 vccd1 vccd1 sky130_fd_sc_hd__decap_6
XFILLER_0_7_361 vssd1 vssd1 vccd1 vccd1 sky130_ef_sc_hd__decap_12
XFILLER_0_5_309 vssd1 vssd1 vccd1 vccd1 sky130_ef_sc_hd__decap_12
XFILLER_0_4_353 vssd1 vssd1 vccd1 vccd1 sky130_fd_sc_hd__decap_8
Xoutput75 net75 vssd1 vssd1 vccd1 vccd1 FrameStrobe_O[10] sky130_fd_sc_hd__clkbuf_4
Xoutput86 net86 vssd1 vssd1 vccd1 vccd1 FrameStrobe_O[2] sky130_fd_sc_hd__clkbuf_4
Xoutput97 net97 vssd1 vssd1 vccd1 vccd1 N1BEG[3] sky130_fd_sc_hd__clkbuf_4
Xstrobe_outbuf_14__0_ FrameStrobe_O_i\[14\] vssd1 vssd1 vccd1 vccd1 net79 sky130_fd_sc_hd__clkbuf_1
XTAP_145 vssd1 vccd1 sky130_fd_sc_hd__tapvpwrvgnd_1
XTAP_134 vssd1 vccd1 sky130_fd_sc_hd__tapvpwrvgnd_1
XTAP_123 vssd1 vccd1 sky130_fd_sc_hd__tapvpwrvgnd_1
XTAP_112 vssd1 vccd1 sky130_fd_sc_hd__tapvpwrvgnd_1
XTAP_101 vssd1 vccd1 sky130_fd_sc_hd__tapvpwrvgnd_1
XFILLER_0_7_93 vssd1 vssd1 vccd1 vccd1 sky130_ef_sc_hd__decap_12
XFILLER_0_2_109 vssd1 vssd1 vccd1 vccd1 sky130_ef_sc_hd__decap_12
XFILLER_0_13_96 vssd1 vssd1 vccd1 vccd1 sky130_fd_sc_hd__fill_2
XFILLER_0_13_85 vssd1 vssd1 vccd1 vccd1 sky130_fd_sc_hd__fill_1
XFILLER_0_10_421 vssd1 vssd1 vccd1 vccd1 sky130_ef_sc_hd__decap_12
XFILLER_0_6_404 vssd1 vssd1 vccd1 vccd1 sky130_ef_sc_hd__decap_12
XFILLER_0_10_251 vssd1 vssd1 vccd1 vccd1 sky130_fd_sc_hd__fill_1
XFILLER_0_2_440 vssd1 vssd1 vccd1 vccd1 sky130_ef_sc_hd__decap_12
XFILLER_0_4_83 vssd1 vssd1 vccd1 vccd1 sky130_fd_sc_hd__fill_1
XFILLER_0_9_39 vssd1 vssd1 vccd1 vccd1 sky130_ef_sc_hd__decap_12
Xstrobe_inbuf_11__0_ net3 vssd1 vssd1 vccd1 vccd1 FrameStrobe_O_i\[11\] sky130_fd_sc_hd__clkbuf_1
XFILLER_0_10_97 vssd1 vssd1 vccd1 vccd1 sky130_ef_sc_hd__decap_12
XFILLER_0_10_53 vssd1 vssd1 vccd1 vccd1 sky130_ef_sc_hd__decap_12
XFILLER_0_3_237 vssd1 vssd1 vccd1 vccd1 sky130_ef_sc_hd__decap_12
XFILLER_0_8_307 vssd1 vssd1 vccd1 vccd1 sky130_fd_sc_hd__fill_1
XFILLER_0_7_373 vssd1 vssd1 vccd1 vccd1 sky130_ef_sc_hd__decap_12
Xstrobe_outbuf_9__0_ FrameStrobe_O_i\[9\] vssd1 vssd1 vccd1 vccd1 net93 sky130_fd_sc_hd__buf_1
XFILLER_0_1_51 vssd1 vssd1 vccd1 vccd1 sky130_fd_sc_hd__decap_4
XFILLER_0_6_29 vssd1 vssd1 vccd1 vccd1 sky130_ef_sc_hd__decap_12
XFILLER_0_12_154 vssd1 vssd1 vccd1 vccd1 sky130_fd_sc_hd__fill_2
XFILLER_0_12_121 vssd1 vssd1 vccd1 vccd1 sky130_fd_sc_hd__decap_3
XFILLER_0_4_365 vssd1 vssd1 vccd1 vccd1 sky130_ef_sc_hd__decap_12
Xoutput87 net87 vssd1 vssd1 vccd1 vccd1 FrameStrobe_O[3] sky130_fd_sc_hd__clkbuf_4
Xoutput98 net98 vssd1 vssd1 vccd1 vccd1 N2BEG[0] sky130_fd_sc_hd__buf_2
Xoutput76 net76 vssd1 vssd1 vccd1 vccd1 FrameStrobe_O[11] sky130_fd_sc_hd__clkbuf_4
XFILLER_0_7_181 vssd1 vssd1 vccd1 vccd1 sky130_ef_sc_hd__decap_12
XTAP_146 vssd1 vccd1 sky130_fd_sc_hd__tapvpwrvgnd_1
XTAP_135 vssd1 vccd1 sky130_fd_sc_hd__tapvpwrvgnd_1
XTAP_124 vssd1 vccd1 sky130_fd_sc_hd__tapvpwrvgnd_1
XFILLER_0_9_457 vssd1 vssd1 vccd1 vccd1 sky130_fd_sc_hd__fill_1
XTAP_113 vssd1 vccd1 sky130_fd_sc_hd__tapvpwrvgnd_1
XTAP_102 vssd1 vccd1 sky130_fd_sc_hd__tapvpwrvgnd_1
XFILLER_0_1_335 vssd1 vssd1 vccd1 vccd1 sky130_fd_sc_hd__fill_1
XFILLER_0_4_195 vssd1 vssd1 vccd1 vccd1 sky130_fd_sc_hd__fill_1
XFILLER_0_10_433 vssd1 vssd1 vccd1 vccd1 sky130_ef_sc_hd__decap_12
XFILLER_0_6_416 vssd1 vssd1 vccd1 vccd1 sky130_fd_sc_hd__decap_4
XFILLER_0_0_6 vssd1 vssd1 vccd1 vccd1 sky130_ef_sc_hd__decap_12
XFILLER_0_2_452 vssd1 vssd1 vccd1 vccd1 sky130_fd_sc_hd__decap_6
XFILLER_0_10_65 vssd1 vssd1 vccd1 vccd1 sky130_ef_sc_hd__decap_12
XFILLER_0_3_205 vssd1 vssd1 vccd1 vccd1 sky130_ef_sc_hd__decap_12
XFILLER_0_3_249 vssd1 vssd1 vccd1 vccd1 sky130_ef_sc_hd__decap_12
XFILLER_0_11_391 vssd1 vssd1 vccd1 vccd1 sky130_fd_sc_hd__fill_1
XFILLER_0_7_385 vssd1 vssd1 vccd1 vccd1 sky130_fd_sc_hd__decap_6
XFILLER_0_4_377 vssd1 vssd1 vccd1 vccd1 sky130_ef_sc_hd__decap_12
Xoutput77 net77 vssd1 vssd1 vccd1 vccd1 FrameStrobe_O[12] sky130_fd_sc_hd__clkbuf_4
Xoutput88 net88 vssd1 vssd1 vccd1 vccd1 FrameStrobe_O[4] sky130_fd_sc_hd__clkbuf_4
Xoutput99 net99 vssd1 vssd1 vccd1 vccd1 N2BEG[1] sky130_fd_sc_hd__clkbuf_4
XFILLER_0_9_3 vssd1 vssd1 vccd1 vccd1 sky130_ef_sc_hd__decap_12
XFILLER_0_7_193 vssd1 vssd1 vccd1 vccd1 sky130_ef_sc_hd__decap_12
XTAP_147 vssd1 vccd1 sky130_fd_sc_hd__tapvpwrvgnd_1
XTAP_136 vssd1 vccd1 sky130_fd_sc_hd__tapvpwrvgnd_1
XTAP_125 vssd1 vccd1 sky130_fd_sc_hd__tapvpwrvgnd_1
XFILLER_0_9_447 vssd1 vssd1 vccd1 vccd1 sky130_fd_sc_hd__fill_1
XTAP_114 vssd1 vccd1 sky130_fd_sc_hd__tapvpwrvgnd_1
XTAP_103 vssd1 vccd1 sky130_fd_sc_hd__tapvpwrvgnd_1
XFILLER_0_7_51 vssd1 vssd1 vccd1 vccd1 sky130_fd_sc_hd__decap_4
XFILLER_0_4_141 vssd1 vssd1 vccd1 vccd1 sky130_ef_sc_hd__decap_12
XFILLER_0_10_445 vssd1 vssd1 vccd1 vccd1 sky130_ef_sc_hd__decap_12
XFILLER_0_10_401 vssd1 vssd1 vccd1 vccd1 sky130_ef_sc_hd__decap_12
XFILLER_0_1_111 vssd1 vssd1 vccd1 vccd1 sky130_fd_sc_hd__fill_1
XFILLER_0_10_253 vssd1 vssd1 vccd1 vccd1 sky130_ef_sc_hd__decap_12
XFILLER_0_10_231 vssd1 vssd1 vccd1 vccd1 sky130_ef_sc_hd__decap_12
XFILLER_0_6_225 vssd1 vssd1 vccd1 vccd1 sky130_fd_sc_hd__decap_8
XFILLER_0_4_41 vssd1 vssd1 vccd1 vccd1 sky130_ef_sc_hd__decap_12
XFILLER_0_4_85 vssd1 vssd1 vccd1 vccd1 sky130_ef_sc_hd__decap_12
XFILLER_0_10_77 vssd1 vssd1 vccd1 vccd1 sky130_fd_sc_hd__decap_6
Xstrobe_inbuf_2__0_ net13 vssd1 vssd1 vccd1 vccd1 FrameStrobe_O_i\[2\] sky130_fd_sc_hd__clkbuf_1
XFILLER_0_8_309 vssd1 vssd1 vccd1 vccd1 sky130_ef_sc_hd__decap_12
XFILLER_0_12_304 vssd1 vssd1 vccd1 vccd1 sky130_fd_sc_hd__decap_4
XFILLER_0_7_397 vssd1 vssd1 vccd1 vccd1 sky130_ef_sc_hd__decap_12
XFILLER_0_12_178 vssd1 vssd1 vccd1 vccd1 sky130_fd_sc_hd__fill_1
XFILLER_0_8_139 vssd1 vssd1 vccd1 vccd1 sky130_fd_sc_hd__fill_1
Xstrobe_outbuf_17__0_ FrameStrobe_O_i\[17\] vssd1 vssd1 vccd1 vccd1 net82 sky130_fd_sc_hd__clkbuf_1
XFILLER_0_4_301 vssd1 vssd1 vccd1 vccd1 sky130_fd_sc_hd__decap_6
XFILLER_0_4_389 vssd1 vssd1 vccd1 vccd1 sky130_fd_sc_hd__fill_2
Xoutput78 net78 vssd1 vssd1 vccd1 vccd1 FrameStrobe_O[13] sky130_fd_sc_hd__clkbuf_4
Xoutput89 net89 vssd1 vssd1 vccd1 vccd1 FrameStrobe_O[5] sky130_fd_sc_hd__clkbuf_4
XFILLER_0_7_161 vssd1 vssd1 vccd1 vccd1 sky130_fd_sc_hd__decap_6
XTAP_148 vssd1 vccd1 sky130_fd_sc_hd__tapvpwrvgnd_1
XTAP_137 vssd1 vccd1 sky130_fd_sc_hd__tapvpwrvgnd_1
XTAP_126 vssd1 vccd1 sky130_fd_sc_hd__tapvpwrvgnd_1
XTAP_115 vssd1 vccd1 sky130_fd_sc_hd__tapvpwrvgnd_1
XTAP_104 vssd1 vccd1 sky130_fd_sc_hd__tapvpwrvgnd_1
XFILLER_0_1_337 vssd1 vssd1 vccd1 vccd1 sky130_ef_sc_hd__decap_12
XFILLER_0_4_153 vssd1 vssd1 vccd1 vccd1 sky130_ef_sc_hd__decap_12
XFILLER_0_4_197 vssd1 vssd1 vccd1 vccd1 sky130_fd_sc_hd__fill_2
XFILLER_0_10_457 vssd1 vssd1 vccd1 vccd1 sky130_fd_sc_hd__fill_1
XFILLER_0_10_413 vssd1 vssd1 vccd1 vccd1 sky130_fd_sc_hd__decap_6
XFILLER_0_9_223 vssd1 vssd1 vccd1 vccd1 sky130_fd_sc_hd__fill_1
XFILLER_0_1_167 vssd1 vssd1 vccd1 vccd1 sky130_fd_sc_hd__fill_1
Xstrobe_inbuf_14__0_ net6 vssd1 vssd1 vccd1 vccd1 FrameStrobe_O_i\[14\] sky130_fd_sc_hd__clkbuf_1
XFILLER_0_10_243 vssd1 vssd1 vccd1 vccd1 sky130_fd_sc_hd__decap_8
XFILLER_0_6_248 vssd1 vssd1 vccd1 vccd1 sky130_fd_sc_hd__decap_4
XFILLER_0_2_421 vssd1 vssd1 vccd1 vccd1 sky130_fd_sc_hd__decap_4
XFILLER_0_10_265 vssd1 vssd1 vccd1 vccd1 sky130_ef_sc_hd__decap_12
XFILLER_0_5_281 vssd1 vssd1 vccd1 vccd1 sky130_fd_sc_hd__fill_1
XFILLER_0_4_53 vssd1 vssd1 vccd1 vccd1 sky130_ef_sc_hd__decap_12
XFILLER_0_4_97 vssd1 vssd1 vccd1 vccd1 sky130_ef_sc_hd__decap_12
XInst_S_term_DSP_switch_matrix__49_ net23 vssd1 vssd1 vccd1 vccd1 net95 sky130_fd_sc_hd__buf_1
XFILLER_0_11_393 vssd1 vssd1 vccd1 vccd1 sky130_ef_sc_hd__decap_12
XFILLER_0_4_313 vssd1 vssd1 vccd1 vccd1 sky130_fd_sc_hd__fill_1
XFILLER_0_3_390 vssd1 vssd1 vccd1 vccd1 sky130_fd_sc_hd__fill_2
Xoutput79 net79 vssd1 vssd1 vccd1 vccd1 FrameStrobe_O[14] sky130_fd_sc_hd__clkbuf_4
XTAP_149 vssd1 vccd1 sky130_fd_sc_hd__tapvpwrvgnd_1
XTAP_138 vssd1 vccd1 sky130_fd_sc_hd__tapvpwrvgnd_1
XTAP_127 vssd1 vccd1 sky130_fd_sc_hd__tapvpwrvgnd_1
XTAP_116 vssd1 vccd1 sky130_fd_sc_hd__tapvpwrvgnd_1
XTAP_105 vssd1 vccd1 sky130_fd_sc_hd__tapvpwrvgnd_1
XFILLER_0_1_305 vssd1 vssd1 vccd1 vccd1 sky130_ef_sc_hd__decap_12
XFILLER_0_1_349 vssd1 vssd1 vccd1 vccd1 sky130_ef_sc_hd__decap_12
XFILLER_0_9_449 vssd1 vssd1 vccd1 vccd1 sky130_fd_sc_hd__decap_8
XFILLER_0_9_405 vssd1 vssd1 vccd1 vccd1 sky130_ef_sc_hd__decap_12
XFILLER_0_4_121 vssd1 vssd1 vccd1 vccd1 sky130_ef_sc_hd__decap_12
XFILLER_0_4_165 vssd1 vssd1 vccd1 vccd1 sky130_ef_sc_hd__decap_12
XFILLER_0_1_113 vssd1 vssd1 vccd1 vccd1 sky130_ef_sc_hd__decap_12
XFILLER_0_9_279 vssd1 vssd1 vccd1 vccd1 sky130_fd_sc_hd__fill_1
XFILLER_0_10_277 vssd1 vssd1 vccd1 vccd1 sky130_ef_sc_hd__decap_12
XFILLER_0_4_65 vssd1 vssd1 vccd1 vccd1 sky130_ef_sc_hd__decap_12
XFILLER_0_2_241 vssd1 vssd1 vccd1 vccd1 sky130_fd_sc_hd__decap_8
XInst_S_term_DSP_switch_matrix__48_ net24 vssd1 vssd1 vccd1 vccd1 net94 sky130_fd_sc_hd__buf_1
XFILLER_0_1_55 vssd1 vssd1 vccd1 vccd1 sky130_fd_sc_hd__fill_1
XFILLER_0_11_361 vssd1 vssd1 vccd1 vccd1 sky130_ef_sc_hd__decap_12
XFILLER_0_1_317 vssd1 vssd1 vccd1 vccd1 sky130_ef_sc_hd__decap_12
XTAP_139 vssd1 vccd1 sky130_fd_sc_hd__tapvpwrvgnd_1
XTAP_128 vssd1 vccd1 sky130_fd_sc_hd__tapvpwrvgnd_1
XTAP_117 vssd1 vccd1 sky130_fd_sc_hd__tapvpwrvgnd_1
XFILLER_0_9_417 vssd1 vssd1 vccd1 vccd1 sky130_ef_sc_hd__decap_12
XTAP_106 vssd1 vccd1 sky130_fd_sc_hd__tapvpwrvgnd_1
XPHY_0 vssd1 vssd1 vccd1 vccd1 sky130_fd_sc_hd__decap_3
XFILLER_0_0_361 vssd1 vssd1 vccd1 vccd1 sky130_fd_sc_hd__decap_3
XFILLER_0_0_372 vssd1 vssd1 vccd1 vccd1 sky130_ef_sc_hd__decap_12
XFILLER_0_4_133 vssd1 vssd1 vccd1 vccd1 sky130_fd_sc_hd__decap_6
XFILLER_0_4_177 vssd1 vssd1 vccd1 vccd1 sky130_ef_sc_hd__decap_12
XFILLER_0_7_3 vssd1 vssd1 vccd1 vccd1 sky130_ef_sc_hd__decap_12
XFILLER_0_13_57 vssd1 vssd1 vccd1 vccd1 sky130_fd_sc_hd__fill_1
XFILLER_0_13_35 vssd1 vssd1 vccd1 vccd1 sky130_fd_sc_hd__fill_1
XFILLER_0_1_169 vssd1 vssd1 vccd1 vccd1 sky130_ef_sc_hd__decap_12
XFILLER_0_1_125 vssd1 vssd1 vccd1 vccd1 sky130_ef_sc_hd__decap_12
XFILLER_0_9_225 vssd1 vssd1 vccd1 vccd1 sky130_ef_sc_hd__decap_12
XFILLER_0_10_289 vssd1 vssd1 vccd1 vccd1 sky130_ef_sc_hd__decap_12
XFILLER_0_2_401 vssd1 vssd1 vccd1 vccd1 sky130_fd_sc_hd__decap_8
XFILLER_0_4_77 vssd1 vssd1 vccd1 vccd1 sky130_fd_sc_hd__decap_6
Xstrobe_inbuf_5__0_ net16 vssd1 vssd1 vccd1 vccd1 FrameStrobe_O_i\[5\] sky130_fd_sc_hd__clkbuf_1
XFILLER_0_2_253 vssd1 vssd1 vccd1 vccd1 sky130_ef_sc_hd__decap_12
XInst_S_term_DSP_switch_matrix__47_ net69 vssd1 vssd1 vccd1 vccd1 net145 sky130_fd_sc_hd__clkbuf_1
XFILLER_0_11_373 vssd1 vssd1 vccd1 vccd1 sky130_ef_sc_hd__decap_12
XFILLER_0_8_109 vssd1 vssd1 vccd1 vccd1 sky130_ef_sc_hd__decap_12
XTAP_129 vssd1 vccd1 sky130_fd_sc_hd__tapvpwrvgnd_1
XTAP_118 vssd1 vccd1 sky130_fd_sc_hd__tapvpwrvgnd_1
XFILLER_0_9_429 vssd1 vssd1 vccd1 vccd1 sky130_ef_sc_hd__decap_12
XTAP_107 vssd1 vccd1 sky130_fd_sc_hd__tapvpwrvgnd_1
Xstrobe_outbuf_2__0_ FrameStrobe_O_i\[2\] vssd1 vssd1 vccd1 vccd1 net86 sky130_fd_sc_hd__buf_1
XFILLER_0_1_329 vssd1 vssd1 vccd1 vccd1 sky130_fd_sc_hd__decap_6
XPHY_1 vssd1 vssd1 vccd1 vccd1 sky130_fd_sc_hd__decap_3
XFILLER_0_13_457 vssd1 vssd1 vccd1 vccd1 sky130_fd_sc_hd__fill_1
XFILLER_0_7_55 vssd1 vssd1 vccd1 vccd1 sky130_fd_sc_hd__fill_1
XFILLER_0_0_384 vssd1 vssd1 vccd1 vccd1 sky130_fd_sc_hd__decap_8
XFILLER_0_4_189 vssd1 vssd1 vccd1 vccd1 sky130_fd_sc_hd__decap_6
XFILLER_0_1_137 vssd1 vssd1 vccd1 vccd1 sky130_ef_sc_hd__decap_12
Xstrobe_inbuf_17__0_ net9 vssd1 vssd1 vccd1 vccd1 FrameStrobe_O_i\[17\] sky130_fd_sc_hd__clkbuf_1
XFILLER_0_9_237 vssd1 vssd1 vccd1 vccd1 sky130_ef_sc_hd__decap_12
XFILLER_0_5_410 vssd1 vssd1 vccd1 vccd1 sky130_fd_sc_hd__decap_8
XFILLER_0_0_181 vssd1 vssd1 vccd1 vccd1 sky130_fd_sc_hd__decap_4
XFILLER_0_5_262 vssd1 vssd1 vccd1 vccd1 sky130_ef_sc_hd__decap_12
XFILLER_0_10_15 vssd1 vssd1 vccd1 vccd1 sky130_ef_sc_hd__decap_12
XFILLER_0_2_221 vssd1 vssd1 vccd1 vccd1 sky130_fd_sc_hd__decap_4
XFILLER_0_2_265 vssd1 vssd1 vccd1 vccd1 sky130_ef_sc_hd__decap_12
XInst_S_term_DSP_switch_matrix__46_ net70 vssd1 vssd1 vccd1 vccd1 net144 sky130_fd_sc_hd__clkbuf_1
XFILLER_0_11_385 vssd1 vssd1 vccd1 vccd1 sky130_fd_sc_hd__decap_6
XFILLER_0_7_335 vssd1 vssd1 vccd1 vccd1 sky130_fd_sc_hd__fill_1
XFILLER_0_1_57 vssd1 vssd1 vccd1 vccd1 sky130_ef_sc_hd__decap_12
XFILLER_0_6_390 vssd1 vssd1 vccd1 vccd1 sky130_fd_sc_hd__decap_8
XInst_S_term_DSP_switch_matrix__29_ net55 vssd1 vssd1 vccd1 vccd1 net127 sky130_fd_sc_hd__buf_1
XFILLER_0_11_160 vssd1 vssd1 vccd1 vccd1 sky130_fd_sc_hd__decap_8
XFILLER_0_3_382 vssd1 vssd1 vccd1 vccd1 sky130_fd_sc_hd__decap_8
XFILLER_0_3_393 vssd1 vssd1 vccd1 vccd1 sky130_ef_sc_hd__decap_12
XTAP_119 vssd1 vccd1 sky130_fd_sc_hd__tapvpwrvgnd_1
XTAP_108 vssd1 vccd1 sky130_fd_sc_hd__tapvpwrvgnd_1
XPHY_2 vssd1 vssd1 vccd1 vccd1 sky130_fd_sc_hd__decap_3
XFILLER_0_13_447 vssd1 vssd1 vccd1 vccd1 sky130_fd_sc_hd__fill_1
XFILLER_0_0_396 vssd1 vssd1 vccd1 vccd1 sky130_ef_sc_hd__decap_12
XFILLER_0_13_15 vssd1 vssd1 vccd1 vccd1 sky130_ef_sc_hd__decap_12
XFILLER_0_1_105 vssd1 vssd1 vccd1 vccd1 sky130_fd_sc_hd__decap_6
XFILLER_0_9_249 vssd1 vssd1 vccd1 vccd1 sky130_ef_sc_hd__decap_12
XFILLER_0_9_205 vssd1 vssd1 vccd1 vccd1 sky130_ef_sc_hd__decap_12
XFILLER_0_1_149 vssd1 vssd1 vccd1 vccd1 sky130_ef_sc_hd__decap_12
XFILLER_0_5_285 vssd1 vssd1 vccd1 vccd1 sky130_ef_sc_hd__decap_12
XFILLER_0_5_274 vssd1 vssd1 vccd1 vccd1 sky130_fd_sc_hd__decap_6
XFILLER_0_10_27 vssd1 vssd1 vccd1 vccd1 sky130_fd_sc_hd__fill_1
XFILLER_0_2_277 vssd1 vssd1 vccd1 vccd1 sky130_ef_sc_hd__decap_12
XInst_S_term_DSP_switch_matrix__45_ net71 vssd1 vssd1 vccd1 vccd1 net143 sky130_fd_sc_hd__clkbuf_1
XFILLER_0_12_309 vssd1 vssd1 vccd1 vccd1 sky130_ef_sc_hd__decap_12
XFILLER_0_1_69 vssd1 vssd1 vccd1 vccd1 sky130_ef_sc_hd__decap_12
XInst_S_term_DSP_switch_matrix__28_ net56 vssd1 vssd1 vccd1 vccd1 net126 sky130_fd_sc_hd__buf_1
XFILLER_0_12_139 vssd1 vssd1 vccd1 vccd1 sky130_fd_sc_hd__fill_1
XFILLER_0_12_106 vssd1 vssd1 vccd1 vccd1 sky130_fd_sc_hd__decap_3
XFILLER_0_4_317 vssd1 vssd1 vccd1 vccd1 sky130_ef_sc_hd__decap_12
XFILLER_0_7_111 vssd1 vssd1 vccd1 vccd1 sky130_fd_sc_hd__fill_1
XFILLER_0_3_361 vssd1 vssd1 vccd1 vccd1 sky130_ef_sc_hd__decap_12
XTAP_109 vssd1 vccd1 sky130_fd_sc_hd__tapvpwrvgnd_1
XFILLER_0_7_57 vssd1 vssd1 vccd1 vccd1 sky130_ef_sc_hd__decap_12
XPHY_3 vssd1 vssd1 vccd1 vccd1 sky130_fd_sc_hd__decap_3
XFILLER_0_13_27 vssd1 vssd1 vccd1 vccd1 sky130_fd_sc_hd__fill_1
XFILLER_0_13_201 vssd1 vssd1 vccd1 vccd1 sky130_fd_sc_hd__fill_1
XFILLER_0_9_217 vssd1 vssd1 vccd1 vccd1 sky130_fd_sc_hd__decap_6
Xstrobe_outbuf_10__0_ FrameStrobe_O_i\[10\] vssd1 vssd1 vccd1 vccd1 net75 sky130_fd_sc_hd__buf_1
XFILLER_0_5_423 vssd1 vssd1 vccd1 vccd1 sky130_ef_sc_hd__decap_12
XFILLER_0_13_223 vssd1 vssd1 vccd1 vccd1 sky130_fd_sc_hd__fill_1
XFILLER_0_6_209 vssd1 vssd1 vccd1 vccd1 sky130_ef_sc_hd__decap_12
Xstrobe_inbuf_8__0_ net19 vssd1 vssd1 vccd1 vccd1 FrameStrobe_O_i\[8\] sky130_fd_sc_hd__clkbuf_1
XFILLER_0_2_415 vssd1 vssd1 vccd1 vccd1 sky130_fd_sc_hd__decap_4
XFILLER_0_5_3 vssd1 vssd1 vccd1 vccd1 sky130_ef_sc_hd__decap_12
XFILLER_0_5_297 vssd1 vssd1 vccd1 vccd1 sky130_ef_sc_hd__decap_12
XFILLER_0_2_289 vssd1 vssd1 vccd1 vccd1 sky130_ef_sc_hd__decap_12
XInst_S_term_DSP_switch_matrix__44_ net72 vssd1 vssd1 vccd1 vccd1 net142 sky130_fd_sc_hd__clkbuf_1
XFILLER_0_7_337 vssd1 vssd1 vccd1 vccd1 sky130_ef_sc_hd__decap_12
XFILLER_0_1_15 vssd1 vssd1 vccd1 vccd1 sky130_ef_sc_hd__decap_12
XInst_S_term_DSP_switch_matrix__27_ net42 vssd1 vssd1 vccd1 vccd1 net125 sky130_fd_sc_hd__buf_1
XFILLER_0_4_307 vssd1 vssd1 vccd1 vccd1 sky130_fd_sc_hd__fill_1
XFILLER_0_4_329 vssd1 vssd1 vccd1 vccd1 sky130_ef_sc_hd__decap_12
XFILLER_0_7_167 vssd1 vssd1 vccd1 vccd1 sky130_fd_sc_hd__fill_1
XFILLER_0_3_373 vssd1 vssd1 vccd1 vccd1 sky130_fd_sc_hd__decap_6
Xstrobe_outbuf_5__0_ FrameStrobe_O_i\[5\] vssd1 vssd1 vccd1 vccd1 net89 sky130_fd_sc_hd__buf_1
XFILLER_0_13_449 vssd1 vssd1 vccd1 vccd1 sky130_fd_sc_hd__decap_8
XFILLER_0_7_69 vssd1 vssd1 vccd1 vccd1 sky130_ef_sc_hd__decap_12
XFILLER_0_0_321 vssd1 vssd1 vccd1 vccd1 sky130_fd_sc_hd__fill_2
XFILLER_0_0_365 vssd1 vssd1 vccd1 vccd1 sky130_fd_sc_hd__decap_4
XPHY_4 vssd1 vssd1 vccd1 vccd1 sky130_fd_sc_hd__decap_3
XFILLER_0_8_421 vssd1 vssd1 vccd1 vccd1 sky130_ef_sc_hd__decap_12
XFILLER_0_3_181 vssd1 vssd1 vccd1 vccd1 sky130_fd_sc_hd__decap_8
XFILLER_0_10_419 vssd1 vssd1 vccd1 vccd1 sky130_fd_sc_hd__fill_1
XFILLER_0_8_251 vssd1 vssd1 vccd1 vccd1 sky130_fd_sc_hd__fill_1
XFILLER_0_5_457 vssd1 vssd1 vccd1 vccd1 sky130_fd_sc_hd__fill_1
XFILLER_0_5_435 vssd1 vssd1 vccd1 vccd1 sky130_ef_sc_hd__decap_12
XFILLER_0_4_15 vssd1 vssd1 vccd1 vccd1 sky130_ef_sc_hd__decap_12
XFILLER_0_10_29 vssd1 vssd1 vccd1 vccd1 sky130_ef_sc_hd__decap_12
XInst_S_term_DSP_switch_matrix__43_ net58 vssd1 vssd1 vccd1 vccd1 net141 sky130_fd_sc_hd__clkbuf_1
XFILLER_0_1_27 vssd1 vssd1 vccd1 vccd1 sky130_ef_sc_hd__decap_12
XFILLER_0_7_349 vssd1 vssd1 vccd1 vccd1 sky130_ef_sc_hd__decap_12
XFILLER_0_7_305 vssd1 vssd1 vccd1 vccd1 sky130_ef_sc_hd__decap_12
XInst_S_term_DSP_switch_matrix__26_ net43 vssd1 vssd1 vccd1 vccd1 net124 sky130_fd_sc_hd__buf_1
XFILLER_0_7_113 vssd1 vssd1 vccd1 vccd1 sky130_ef_sc_hd__decap_12
XFILLER_0_13_439 vssd1 vssd1 vccd1 vccd1 sky130_fd_sc_hd__decap_8
XFILLER_0_13_417 vssd1 vssd1 vccd1 vccd1 sky130_fd_sc_hd__decap_3
XInst_S_term_DSP_switch_matrix__09_ net31 vssd1 vssd1 vccd1 vccd1 net107 sky130_fd_sc_hd__buf_1
XFILLER_0_7_15 vssd1 vssd1 vccd1 vccd1 sky130_ef_sc_hd__decap_12
XPHY_5 vssd1 vssd1 vccd1 vccd1 sky130_fd_sc_hd__decap_3
XFILLER_0_8_433 vssd1 vssd1 vccd1 vccd1 sky130_ef_sc_hd__decap_12
XFILLER_0_3_193 vssd1 vssd1 vccd1 vccd1 sky130_ef_sc_hd__decap_12
XFILLER_0_13_29 vssd1 vssd1 vccd1 vccd1 sky130_fd_sc_hd__decap_6
XFILLER_0_5_447 vssd1 vssd1 vccd1 vccd1 sky130_fd_sc_hd__fill_1
XFILLER_0_2_428 vssd1 vssd1 vccd1 vccd1 sky130_ef_sc_hd__decap_12
XFILLER_0_4_27 vssd1 vssd1 vccd1 vccd1 sky130_fd_sc_hd__fill_1
XFILLER_0_2_225 vssd1 vssd1 vccd1 vccd1 sky130_fd_sc_hd__fill_1
XInst_S_term_DSP_switch_matrix__42_ net59 vssd1 vssd1 vccd1 vccd1 net140 sky130_fd_sc_hd__clkbuf_1
XFILLER_0_9_391 vssd1 vssd1 vccd1 vccd1 sky130_fd_sc_hd__fill_1
XFILLER_0_5_81 vssd1 vssd1 vccd1 vccd1 sky130_ef_sc_hd__decap_12
XFILLER_0_11_84 vssd1 vssd1 vccd1 vccd1 sky130_ef_sc_hd__decap_12
XFILLER_0_11_51 vssd1 vssd1 vccd1 vccd1 sky130_fd_sc_hd__decap_4
XFILLER_0_7_317 vssd1 vssd1 vccd1 vccd1 sky130_ef_sc_hd__decap_12
XFILLER_0_1_39 vssd1 vssd1 vccd1 vccd1 sky130_ef_sc_hd__decap_12
XInst_S_term_DSP_switch_matrix__25_ net44 vssd1 vssd1 vccd1 vccd1 net123 sky130_fd_sc_hd__buf_1
XFILLER_0_4_309 vssd1 vssd1 vccd1 vccd1 sky130_fd_sc_hd__decap_4
XFILLER_0_7_169 vssd1 vssd1 vccd1 vccd1 sky130_ef_sc_hd__decap_12
XFILLER_0_7_125 vssd1 vssd1 vccd1 vccd1 sky130_ef_sc_hd__decap_12
XFILLER_0_3_320 vssd1 vssd1 vccd1 vccd1 sky130_ef_sc_hd__decap_12
XInst_S_term_DSP_switch_matrix__08_ net32 vssd1 vssd1 vccd1 vccd1 net106 sky130_fd_sc_hd__buf_1
Xstrobe_outbuf_13__0_ FrameStrobe_O_i\[13\] vssd1 vssd1 vccd1 vccd1 net78 sky130_fd_sc_hd__clkbuf_1
XFILLER_0_7_27 vssd1 vssd1 vccd1 vccd1 sky130_ef_sc_hd__decap_12
XPHY_6 vssd1 vssd1 vccd1 vccd1 sky130_fd_sc_hd__decap_3
XFILLER_0_4_139 vssd1 vssd1 vccd1 vccd1 sky130_fd_sc_hd__fill_1
XFILLER_0_8_445 vssd1 vssd1 vccd1 vccd1 sky130_ef_sc_hd__decap_12
XFILLER_0_8_401 vssd1 vssd1 vccd1 vccd1 sky130_ef_sc_hd__decap_12
XFILLER_0_0_334 vssd1 vssd1 vccd1 vccd1 sky130_fd_sc_hd__fill_2
XFILLER_0_0_345 vssd1 vssd1 vccd1 vccd1 sky130_fd_sc_hd__fill_1
XFILLER_0_3_161 vssd1 vssd1 vccd1 vccd1 sky130_fd_sc_hd__decap_6
XFILLER_0_0_197 vssd1 vssd1 vccd1 vccd1 sky130_fd_sc_hd__decap_8
XFILLER_0_0_131 vssd1 vssd1 vccd1 vccd1 sky130_fd_sc_hd__decap_8
XFILLER_0_12_292 vssd1 vssd1 vccd1 vccd1 sky130_ef_sc_hd__decap_12
XFILLER_0_8_253 vssd1 vssd1 vccd1 vccd1 sky130_ef_sc_hd__decap_12
XFILLER_0_10_207 vssd1 vssd1 vccd1 vccd1 sky130_ef_sc_hd__decap_12
Xstrobe_inbuf_10__0_ net2 vssd1 vssd1 vccd1 vccd1 FrameStrobe_O_i\[10\] sky130_fd_sc_hd__clkbuf_1
XFILLER_0_3_3 vssd1 vssd1 vccd1 vccd1 sky130_ef_sc_hd__decap_12
XInst_S_term_DSP_switch_matrix__41_ net60 vssd1 vssd1 vccd1 vccd1 net139 sky130_fd_sc_hd__clkbuf_1
XFILLER_0_1_281 vssd1 vssd1 vccd1 vccd1 sky130_ef_sc_hd__decap_12
XFILLER_0_5_93 vssd1 vssd1 vccd1 vccd1 sky130_ef_sc_hd__decap_12
XFILLER_0_11_335 vssd1 vssd1 vccd1 vccd1 sky130_fd_sc_hd__fill_1
XFILLER_0_11_96 vssd1 vssd1 vccd1 vccd1 sky130_ef_sc_hd__decap_12
XFILLER_0_11_63 vssd1 vssd1 vccd1 vccd1 sky130_fd_sc_hd__fill_1
XFILLER_0_7_329 vssd1 vssd1 vccd1 vccd1 sky130_fd_sc_hd__decap_6
XTAP_90 vssd1 vccd1 sky130_fd_sc_hd__tapvpwrvgnd_1
XFILLER_0_6_340 vssd1 vssd1 vccd1 vccd1 sky130_ef_sc_hd__decap_12
Xstrobe_outbuf_8__0_ FrameStrobe_O_i\[8\] vssd1 vssd1 vccd1 vccd1 net92 sky130_fd_sc_hd__buf_1
Xinput1 FrameStrobe[0] vssd1 vssd1 vccd1 vccd1 net1 sky130_fd_sc_hd__buf_1
XInst_S_term_DSP_switch_matrix__24_ net45 vssd1 vssd1 vccd1 vccd1 net122 sky130_fd_sc_hd__buf_1
XFILLER_0_11_143 vssd1 vssd1 vccd1 vccd1 sky130_fd_sc_hd__fill_1
XFILLER_0_7_137 vssd1 vssd1 vccd1 vccd1 sky130_ef_sc_hd__decap_12
XFILLER_0_2_83 vssd1 vssd1 vccd1 vccd1 sky130_fd_sc_hd__fill_1
XFILLER_0_3_332 vssd1 vssd1 vccd1 vccd1 sky130_fd_sc_hd__decap_4
XPHY_7 vssd1 vssd1 vccd1 vccd1 sky130_fd_sc_hd__decap_3
XInst_S_term_DSP_switch_matrix__07_ net33 vssd1 vssd1 vccd1 vccd1 net105 sky130_fd_sc_hd__buf_1
XFILLER_0_8_457 vssd1 vssd1 vccd1 vccd1 sky130_fd_sc_hd__fill_1
XFILLER_0_8_413 vssd1 vssd1 vccd1 vccd1 sky130_fd_sc_hd__decap_6
XFILLER_0_7_39 vssd1 vssd1 vccd1 vccd1 sky130_ef_sc_hd__decap_12
Xinput70 SS4END[7] vssd1 vssd1 vccd1 vccd1 net70 sky130_fd_sc_hd__buf_1
XFILLER_0_5_449 vssd1 vssd1 vccd1 vccd1 sky130_fd_sc_hd__decap_8
XFILLER_0_8_265 vssd1 vssd1 vccd1 vccd1 sky130_ef_sc_hd__decap_12
XFILLER_0_8_221 vssd1 vssd1 vccd1 vccd1 sky130_ef_sc_hd__decap_12
XFILLER_0_0_165 vssd1 vssd1 vccd1 vccd1 sky130_fd_sc_hd__decap_3
XFILLER_0_10_219 vssd1 vssd1 vccd1 vccd1 sky130_ef_sc_hd__decap_12
XFILLER_0_2_419 vssd1 vssd1 vccd1 vccd1 sky130_fd_sc_hd__fill_1
XFILLER_0_4_29 vssd1 vssd1 vccd1 vccd1 sky130_ef_sc_hd__decap_12
XFILLER_0_5_257 vssd1 vssd1 vccd1 vccd1 sky130_fd_sc_hd__fill_2
XFILLER_0_2_249 vssd1 vssd1 vccd1 vccd1 sky130_fd_sc_hd__decap_3
XInst_S_term_DSP_switch_matrix__40_ net61 vssd1 vssd1 vccd1 vccd1 net138 sky130_fd_sc_hd__clkbuf_1
XFILLER_0_9_393 vssd1 vssd1 vccd1 vccd1 sky130_ef_sc_hd__decap_12
XFILLER_0_1_293 vssd1 vssd1 vccd1 vccd1 sky130_ef_sc_hd__decap_12
XTAP_91 vssd1 vccd1 sky130_fd_sc_hd__tapvpwrvgnd_1
XFILLER_0_6_385 vssd1 vssd1 vccd1 vccd1 sky130_fd_sc_hd__fill_2
XFILLER_0_6_352 vssd1 vssd1 vccd1 vccd1 sky130_ef_sc_hd__decap_12
XTAP_80 vssd1 vccd1 sky130_fd_sc_hd__tapvpwrvgnd_1
Xinput2 FrameStrobe[10] vssd1 vssd1 vccd1 vccd1 net2 sky130_fd_sc_hd__clkbuf_1
XInst_S_term_DSP_switch_matrix__23_ net41 vssd1 vssd1 vccd1 vccd1 net120 sky130_fd_sc_hd__buf_1
XFILLER_0_7_149 vssd1 vssd1 vccd1 vccd1 sky130_ef_sc_hd__decap_12
XFILLER_0_7_105 vssd1 vssd1 vccd1 vccd1 sky130_fd_sc_hd__decap_6
XInst_S_term_DSP_switch_matrix__06_ net34 vssd1 vssd1 vccd1 vccd1 net104 sky130_fd_sc_hd__buf_1
XFILLER_0_0_303 vssd1 vssd1 vccd1 vccd1 sky130_fd_sc_hd__decap_4
XPHY_8 vssd1 vssd1 vccd1 vccd1 sky130_fd_sc_hd__decap_3
Xinput60 SS4END[12] vssd1 vssd1 vccd1 vccd1 net60 sky130_fd_sc_hd__buf_1
Xinput71 SS4END[8] vssd1 vssd1 vccd1 vccd1 net71 sky130_fd_sc_hd__buf_1
XFILLER_0_8_277 vssd1 vssd1 vccd1 vccd1 sky130_ef_sc_hd__decap_12
XFILLER_0_8_233 vssd1 vssd1 vccd1 vccd1 sky130_ef_sc_hd__decap_12
XFILLER_0_8_83 vssd1 vssd1 vccd1 vccd1 sky130_fd_sc_hd__fill_1
XFILLER_0_0_188 vssd1 vssd1 vccd1 vccd1 sky130_fd_sc_hd__decap_8
XFILLER_0_0_144 vssd1 vssd1 vccd1 vccd1 sky130_ef_sc_hd__decap_12
XFILLER_0_2_409 vssd1 vssd1 vccd1 vccd1 sky130_fd_sc_hd__decap_3
Xstrobe_inbuf_1__0_ net12 vssd1 vssd1 vccd1 vccd1 FrameStrobe_O_i\[1\] sky130_fd_sc_hd__clkbuf_1
XFILLER_0_1_261 vssd1 vssd1 vccd1 vccd1 sky130_ef_sc_hd__decap_12
XFILLER_0_5_51 vssd1 vssd1 vccd1 vccd1 sky130_fd_sc_hd__decap_4
XFILLER_0_9_361 vssd1 vssd1 vccd1 vccd1 sky130_ef_sc_hd__decap_12
XFILLER_0_11_337 vssd1 vssd1 vccd1 vccd1 sky130_ef_sc_hd__decap_12
XTAP_92 vssd1 vccd1 sky130_fd_sc_hd__tapvpwrvgnd_1
XTAP_81 vssd1 vccd1 sky130_fd_sc_hd__tapvpwrvgnd_1
Xinput3 FrameStrobe[11] vssd1 vssd1 vccd1 vccd1 net3 sky130_fd_sc_hd__clkbuf_1
XTAP_70 vssd1 vccd1 sky130_fd_sc_hd__tapvpwrvgnd_1
XInst_S_term_DSP_switch_matrix__22_ net48 vssd1 vssd1 vccd1 vccd1 net119 sky130_fd_sc_hd__buf_1
XFILLER_0_11_189 vssd1 vssd1 vccd1 vccd1 sky130_fd_sc_hd__decap_3
Xstrobe_outbuf_16__0_ FrameStrobe_O_i\[16\] vssd1 vssd1 vccd1 vccd1 net81 sky130_fd_sc_hd__clkbuf_1
Xinst_clk_buf net73 vssd1 vssd1 vccd1 vccd1 net146 sky130_fd_sc_hd__buf_1
XFILLER_0_2_41 vssd1 vssd1 vccd1 vccd1 sky130_ef_sc_hd__decap_12
XFILLER_0_2_85 vssd1 vssd1 vccd1 vccd1 sky130_ef_sc_hd__decap_12
XInst_S_term_DSP_switch_matrix__05_ net35 vssd1 vssd1 vccd1 vccd1 net103 sky130_fd_sc_hd__buf_1
XFILLER_0_0_326 vssd1 vssd1 vccd1 vccd1 sky130_fd_sc_hd__decap_8
XFILLER_0_0_337 vssd1 vssd1 vccd1 vccd1 sky130_fd_sc_hd__decap_8
XFILLER_0_4_109 vssd1 vssd1 vccd1 vccd1 sky130_ef_sc_hd__decap_12
XPHY_9 vssd1 vssd1 vccd1 vccd1 sky130_fd_sc_hd__decap_3
Xinput61 SS4END[13] vssd1 vssd1 vccd1 vccd1 net61 sky130_fd_sc_hd__buf_1
Xinput72 SS4END[9] vssd1 vssd1 vccd1 vccd1 net72 sky130_fd_sc_hd__buf_1
Xinput50 S4END[3] vssd1 vssd1 vccd1 vccd1 net50 sky130_fd_sc_hd__clkbuf_1
XFILLER_0_8_245 vssd1 vssd1 vccd1 vccd1 sky130_fd_sc_hd__decap_6
XFILLER_0_5_418 vssd1 vssd1 vccd1 vccd1 sky130_fd_sc_hd__fill_2
XFILLER_0_0_156 vssd1 vssd1 vccd1 vccd1 sky130_fd_sc_hd__decap_6
XFILLER_0_12_251 vssd1 vssd1 vccd1 vccd1 sky130_fd_sc_hd__fill_1
XFILLER_0_8_289 vssd1 vssd1 vccd1 vccd1 sky130_ef_sc_hd__decap_12
Xstrobe_inbuf_13__0_ net5 vssd1 vssd1 vccd1 vccd1 FrameStrobe_O_i\[13\] sky130_fd_sc_hd__clkbuf_1
XFILLER_0_5_237 vssd1 vssd1 vccd1 vccd1 sky130_ef_sc_hd__decap_12
XFILLER_0_12_3 vssd1 vssd1 vccd1 vccd1 sky130_ef_sc_hd__decap_12
XFILLER_0_2_229 vssd1 vssd1 vccd1 vccd1 sky130_ef_sc_hd__decap_12