* NGSPICE file created from W_IO.ext - technology: sky130A

* Black-box entry subcircuit for sky130_fd_sc_hd__tapvpwrvgnd_1 abstract view
.subckt sky130_fd_sc_hd__tapvpwrvgnd_1 VGND VPWR
.ends

* Black-box entry subcircuit for sky130_fd_sc_hd__fill_1 abstract view
.subckt sky130_fd_sc_hd__fill_1 VGND VNB VPB VPWR
.ends

* Black-box entry subcircuit for sky130_fd_sc_hd__clkbuf_1 abstract view
.subckt sky130_fd_sc_hd__clkbuf_1 A VGND VNB VPB VPWR X
.ends

* Black-box entry subcircuit for sky130_fd_sc_hd__decap_8 abstract view
.subckt sky130_fd_sc_hd__decap_8 VGND VNB VPB VPWR
.ends

* Black-box entry subcircuit for sky130_fd_sc_hd__fill_2 abstract view
.subckt sky130_fd_sc_hd__fill_2 VGND VNB VPB VPWR
.ends

* Black-box entry subcircuit for sky130_ef_sc_hd__decap_12 abstract view
.subckt sky130_ef_sc_hd__decap_12 VGND VNB VPB VPWR
.ends

* Black-box entry subcircuit for sky130_fd_sc_hd__conb_1 abstract view
.subckt sky130_fd_sc_hd__conb_1 VGND VNB VPB VPWR HI LO
.ends

* Black-box entry subcircuit for sky130_fd_sc_hd__decap_4 abstract view
.subckt sky130_fd_sc_hd__decap_4 VGND VNB VPB VPWR
.ends

* Black-box entry subcircuit for sky130_fd_sc_hd__mux4_1 abstract view
.subckt sky130_fd_sc_hd__mux4_1 A0 A1 A2 A3 S0 S1 VGND VNB VPB VPWR X
.ends

* Black-box entry subcircuit for sky130_fd_sc_hd__decap_3 abstract view
.subckt sky130_fd_sc_hd__decap_3 VGND VNB VPB VPWR
.ends

* Black-box entry subcircuit for sky130_fd_sc_hd__dlxbp_1 abstract view
.subckt sky130_fd_sc_hd__dlxbp_1 D GATE VGND VNB VPB VPWR Q Q_N
.ends

* Black-box entry subcircuit for sky130_fd_sc_hd__inv_2 abstract view
.subckt sky130_fd_sc_hd__inv_2 A VGND VNB VPB VPWR Y
.ends

* Black-box entry subcircuit for sky130_fd_sc_hd__decap_6 abstract view
.subckt sky130_fd_sc_hd__decap_6 VGND VNB VPB VPWR
.ends

* Black-box entry subcircuit for sky130_fd_sc_hd__buf_2 abstract view
.subckt sky130_fd_sc_hd__buf_2 A VGND VNB VPB VPWR X
.ends

* Black-box entry subcircuit for sky130_fd_sc_hd__clkbuf_2 abstract view
.subckt sky130_fd_sc_hd__clkbuf_2 A VGND VNB VPB VPWR X
.ends

* Black-box entry subcircuit for sky130_fd_sc_hd__dlymetal6s2s_1 abstract view
.subckt sky130_fd_sc_hd__dlymetal6s2s_1 A VGND VNB VPB VPWR X
.ends

* Black-box entry subcircuit for sky130_fd_sc_hd__clkbuf_4 abstract view
.subckt sky130_fd_sc_hd__clkbuf_4 A VGND VNB VPB VPWR X
.ends

* Black-box entry subcircuit for sky130_fd_sc_hd__dfxtp_1 abstract view
.subckt sky130_fd_sc_hd__dfxtp_1 CLK D VGND VNB VPB VPWR Q
.ends

* Black-box entry subcircuit for sky130_fd_sc_hd__buf_1 abstract view
.subckt sky130_fd_sc_hd__buf_1 A VGND VNB VPB VPWR X
.ends

* Black-box entry subcircuit for sky130_fd_sc_hd__o21ai_1 abstract view
.subckt sky130_fd_sc_hd__o21ai_1 A1 A2 B1 VGND VNB VPB VPWR Y
.ends

* Black-box entry subcircuit for sky130_fd_sc_hd__nand2_1 abstract view
.subckt sky130_fd_sc_hd__nand2_1 A B VGND VNB VPB VPWR Y
.ends

* Black-box entry subcircuit for sky130_fd_sc_hd__mux4_2 abstract view
.subckt sky130_fd_sc_hd__mux4_2 A0 A1 A2 A3 S0 S1 VGND VNB VPB VPWR X
.ends

* Black-box entry subcircuit for sky130_fd_sc_hd__clkbuf_16 abstract view
.subckt sky130_fd_sc_hd__clkbuf_16 A VGND VNB VPB VPWR X
.ends

* Black-box entry subcircuit for sky130_fd_sc_hd__buf_8 abstract view
.subckt sky130_fd_sc_hd__buf_8 A VGND VNB VPB VPWR X
.ends

* Black-box entry subcircuit for sky130_fd_sc_hd__buf_4 abstract view
.subckt sky130_fd_sc_hd__buf_4 A VGND VNB VPB VPWR X
.ends

* Black-box entry subcircuit for sky130_fd_sc_hd__diode_2 abstract view
.subckt sky130_fd_sc_hd__diode_2 DIODE VGND VNB VPB VPWR
.ends

.subckt W_IO A_I_top A_O_top A_T_top A_config_C_bit0 A_config_C_bit1 A_config_C_bit2
+ A_config_C_bit3 B_I_top B_O_top B_T_top B_config_C_bit0 B_config_C_bit1 B_config_C_bit2
+ B_config_C_bit3 E1BEG[0] E1BEG[1] E1BEG[2] E1BEG[3] E2BEG[0] E2BEG[1] E2BEG[2] E2BEG[3]
+ E2BEG[4] E2BEG[5] E2BEG[6] E2BEG[7] E2BEGb[0] E2BEGb[1] E2BEGb[2] E2BEGb[3] E2BEGb[4]
+ E2BEGb[5] E2BEGb[6] E2BEGb[7] E6BEG[0] E6BEG[10] E6BEG[11] E6BEG[1] E6BEG[2] E6BEG[3]
+ E6BEG[4] E6BEG[5] E6BEG[6] E6BEG[7] E6BEG[8] E6BEG[9] EE4BEG[0] EE4BEG[10] EE4BEG[11]
+ EE4BEG[12] EE4BEG[13] EE4BEG[14] EE4BEG[15] EE4BEG[1] EE4BEG[2] EE4BEG[3] EE4BEG[4]
+ EE4BEG[5] EE4BEG[6] EE4BEG[7] EE4BEG[8] EE4BEG[9] FrameData[0] FrameData[10] FrameData[11]
+ FrameData[12] FrameData[13] FrameData[14] FrameData[15] FrameData[16] FrameData[17]
+ FrameData[18] FrameData[19] FrameData[1] FrameData[20] FrameData[21] FrameData[22]
+ FrameData[23] FrameData[24] FrameData[25] FrameData[26] FrameData[27] FrameData[28]
+ FrameData[29] FrameData[2] FrameData[30] FrameData[31] FrameData[3] FrameData[4]
+ FrameData[5] FrameData[6] FrameData[7] FrameData[8] FrameData[9] FrameData_O[0]
+ FrameData_O[10] FrameData_O[11] FrameData_O[12] FrameData_O[13] FrameData_O[14]
+ FrameData_O[15] FrameData_O[16] FrameData_O[17] FrameData_O[18] FrameData_O[19]
+ FrameData_O[1] FrameData_O[20] FrameData_O[21] FrameData_O[22] FrameData_O[23] FrameData_O[24]
+ FrameData_O[25] FrameData_O[26] FrameData_O[27] FrameData_O[28] FrameData_O[29]
+ FrameData_O[2] FrameData_O[30] FrameData_O[31] FrameData_O[3] FrameData_O[4] FrameData_O[5]
+ FrameData_O[6] FrameData_O[7] FrameData_O[8] FrameData_O[9] FrameStrobe[0] FrameStrobe[10]
+ FrameStrobe[11] FrameStrobe[12] FrameStrobe[13] FrameStrobe[14] FrameStrobe[15]
+ FrameStrobe[16] FrameStrobe[17] FrameStrobe[18] FrameStrobe[19] FrameStrobe[1] FrameStrobe[2]
+ FrameStrobe[3] FrameStrobe[4] FrameStrobe[5] FrameStrobe[6] FrameStrobe[7] FrameStrobe[8]
+ FrameStrobe[9] FrameStrobe_O[0] FrameStrobe_O[10] FrameStrobe_O[11] FrameStrobe_O[12]
+ FrameStrobe_O[13] FrameStrobe_O[14] FrameStrobe_O[15] FrameStrobe_O[16] FrameStrobe_O[17]
+ FrameStrobe_O[18] FrameStrobe_O[19] FrameStrobe_O[1] FrameStrobe_O[2] FrameStrobe_O[3]
+ FrameStrobe_O[4] FrameStrobe_O[5] FrameStrobe_O[6] FrameStrobe_O[7] FrameStrobe_O[8]
+ FrameStrobe_O[9] UserCLK UserCLKo VGND VPWR W1END[0] W1END[1] W1END[2] W1END[3]
+ W2END[0] W2END[1] W2END[2] W2END[3] W2END[4] W2END[5] W2END[6] W2END[7] W2MID[0]
+ W2MID[1] W2MID[2] W2MID[3] W2MID[4] W2MID[5] W2MID[6] W2MID[7] W6END[0] W6END[10]
+ W6END[11] W6END[1] W6END[2] W6END[3] W6END[4] W6END[5] W6END[6] W6END[7] W6END[8]
+ W6END[9] WW4END[0] WW4END[10] WW4END[11] WW4END[12] WW4END[13] WW4END[14] WW4END[15]
+ WW4END[1] WW4END[2] WW4END[3] WW4END[4] WW4END[5] WW4END[6] WW4END[7] WW4END[8]
+ WW4END[9]
XTAP_188 VGND VPWR sky130_fd_sc_hd__tapvpwrvgnd_1
XTAP_177 VGND VPWR sky130_fd_sc_hd__tapvpwrvgnd_1
XTAP_199 VGND VPWR sky130_fd_sc_hd__tapvpwrvgnd_1
XFILLER_0_76_111 VGND VGND VPWR VPWR sky130_fd_sc_hd__fill_1
XInst_W_IO_switch_matrix_inst_cus_mux81_buf_B_T_cus_mux21_inst_break_comb_loop_inst0__0_
+ Inst_W_IO_switch_matrix_inst_cus_mux81_buf_B_T_cus_mux41_buf_inst0/X VGND VGND VPWR
+ VPWR Inst_W_IO_switch_matrix_inst_cus_mux81_buf_B_T_cus_mux21_inst__2_/A sky130_fd_sc_hd__clkbuf_1
XFILLER_0_7_81 VGND VGND VPWR VPWR sky130_fd_sc_hd__decap_8
XFILLER_0_48_15 VGND VGND VPWR VPWR sky130_fd_sc_hd__fill_2
XFILLER_0_3_39 VGND VGND VPWR VPWR sky130_ef_sc_hd__decap_12
XFILLER_0_73_125 VGND VGND VPWR VPWR sky130_ef_sc_hd__decap_12
XFILLER_0_13_84 VGND VGND VPWR VPWR sky130_fd_sc_hd__decap_8
XFILLER_0_18_29 VGND VGND VPWR VPWR sky130_ef_sc_hd__decap_12
XFILLER_0_50_27 VGND VGND VPWR VPWR sky130_fd_sc_hd__fill_1
XFILLER_0_70_106 VGND VGND VPWR VPWR sky130_ef_sc_hd__decap_12
XInst_W_IO_switch_matrix_inst_cus_mux81_buf_B_T_cus_mux41_buf_inst1_217 VGND VGND
+ VPWR VPWR Inst_W_IO_switch_matrix_inst_cus_mux81_buf_B_T_cus_mux41_buf_inst1_217/HI
+ net217 sky130_fd_sc_hd__conb_1
XFILLER_0_75_57 VGND VGND VPWR VPWR sky130_ef_sc_hd__decap_12
XFILLER_0_75_35 VGND VGND VPWR VPWR sky130_fd_sc_hd__decap_4
XFILLER_0_75_24 VGND VGND VPWR VPWR sky130_fd_sc_hd__decap_8
XFILLER_0_59_69 VGND VGND VPWR VPWR sky130_ef_sc_hd__decap_12
XFILLER_0_24_72 VGND VGND VPWR VPWR sky130_ef_sc_hd__decap_12
XFILLER_0_45_27 VGND VGND VPWR VPWR sky130_ef_sc_hd__decap_12
XFILLER_0_10_41 VGND VGND VPWR VPWR sky130_ef_sc_hd__decap_12
XFILLER_0_43_7 VGND VGND VPWR VPWR sky130_ef_sc_hd__decap_12
XFILLER_0_34_117 VGND VGND VPWR VPWR sky130_fd_sc_hd__fill_2
XInst_B_config_Config_access__0_ ConfigBits\[4\] VGND VGND VPWR VPWR net111 sky130_fd_sc_hd__clkbuf_1
Xdata_inbuf_20__0_ net15 VGND VGND VPWR VPWR FrameData_O_i\[20\] sky130_fd_sc_hd__clkbuf_1
XInst_W_IO_switch_matrix_inst_cus_mux41_buf_EE4BEG6 net67 net69 net71 net73 ConfigBits\[56\]
+ ConfigBits\[57\] VGND VGND VPWR VPWR net159 sky130_fd_sc_hd__mux4_1
XFILLER_0_1_61 VGND VGND VPWR VPWR sky130_fd_sc_hd__decap_3
Xdata_inbuf_11__0_ net5 VGND VGND VPWR VPWR FrameData_O_i\[11\] sky130_fd_sc_hd__clkbuf_1
XInst_W_IO_ConfigMem_Inst_frame1_bit0 net3 net46 VGND VGND VPWR VPWR ConfigBits\[50\]
+ Inst_W_IO_ConfigMem_Inst_frame1_bit0/Q_N sky130_fd_sc_hd__dlxbp_1
XFILLER_0_26_29 VGND VGND VPWR VPWR sky130_ef_sc_hd__decap_12
XTAP_348 VGND VPWR sky130_fd_sc_hd__tapvpwrvgnd_1
XTAP_337 VGND VPWR sky130_fd_sc_hd__tapvpwrvgnd_1
XTAP_304 VGND VPWR sky130_fd_sc_hd__tapvpwrvgnd_1
XTAP_315 VGND VPWR sky130_fd_sc_hd__tapvpwrvgnd_1
XTAP_326 VGND VPWR sky130_fd_sc_hd__tapvpwrvgnd_1
XFILLER_0_67_69 VGND VGND VPWR VPWR sky130_ef_sc_hd__decap_12
XInst_W_IO_switch_matrix_inst_cus_mux21_E1BEG3__2_ Inst_W_IO_switch_matrix_inst_cus_mux21_E1BEG3__2_/A
+ VGND VGND VPWR VPWR Inst_W_IO_switch_matrix_inst_cus_mux21_E1BEG3__2_/Y sky130_fd_sc_hd__inv_2
XFILLER_0_32_83 VGND VGND VPWR VPWR sky130_fd_sc_hd__fill_1
XFILLER_0_37_39 VGND VGND VPWR VPWR sky130_fd_sc_hd__fill_2
Xstrobe_outbuf_14__0_ FrameStrobe_O_i\[14\] VGND VGND VPWR VPWR net200 sky130_fd_sc_hd__clkbuf_1
Xdata_outbuf_9__0_ FrameData_O_i\[9\] VGND VGND VPWR VPWR net194 sky130_fd_sc_hd__clkbuf_1
XTAP_189 VGND VPWR sky130_fd_sc_hd__tapvpwrvgnd_1
XTAP_178 VGND VPWR sky130_fd_sc_hd__tapvpwrvgnd_1
XTAP_167 VGND VPWR sky130_fd_sc_hd__tapvpwrvgnd_1
XTAP_156 VGND VPWR sky130_fd_sc_hd__tapvpwrvgnd_1
XFILLER_0_76_123 VGND VGND VPWR VPWR sky130_fd_sc_hd__decap_6
XFILLER_0_27_61 VGND VGND VPWR VPWR sky130_fd_sc_hd__fill_1
XFILLER_0_2_109 VGND VGND VPWR VPWR sky130_ef_sc_hd__decap_12
XFILLER_0_73_137 VGND VGND VPWR VPWR sky130_fd_sc_hd__decap_6
XFILLER_0_73_7 VGND VGND VPWR VPWR sky130_ef_sc_hd__decap_12
XFILLER_0_1_131 VGND VGND VPWR VPWR sky130_fd_sc_hd__fill_1
XFILLER_0_38_93 VGND VGND VPWR VPWR sky130_fd_sc_hd__fill_1
XFILLER_0_34_29 VGND VGND VPWR VPWR sky130_fd_sc_hd__decap_8
XFILLER_0_70_118 VGND VGND VPWR VPWR sky130_fd_sc_hd__decap_8
XFILLER_0_75_69 VGND VGND VPWR VPWR sky130_ef_sc_hd__decap_12
XFILLER_0_40_83 VGND VGND VPWR VPWR sky130_fd_sc_hd__fill_1
Xoutput210 net210 VGND VGND VPWR VPWR FrameStrobe_O[5] sky130_fd_sc_hd__buf_2
XFILLER_0_4_83 VGND VGND VPWR VPWR sky130_fd_sc_hd__fill_1
Xstrobe_inbuf_11__0_ net37 VGND VGND VPWR VPWR FrameStrobe_O_i\[11\] sky130_fd_sc_hd__clkbuf_2
XFILLER_0_45_39 VGND VGND VPWR VPWR sky130_ef_sc_hd__decap_12
XFILLER_0_51_140 VGND VGND VPWR VPWR sky130_fd_sc_hd__decap_3
XFILLER_0_10_53 VGND VGND VPWR VPWR sky130_fd_sc_hd__decap_8
XFILLER_0_31_19 VGND VGND VPWR VPWR sky130_ef_sc_hd__decap_12
XFILLER_0_72_15 VGND VGND VPWR VPWR sky130_ef_sc_hd__decap_12
XFILLER_0_56_27 VGND VGND VPWR VPWR sky130_fd_sc_hd__fill_1
XFILLER_0_21_30 VGND VGND VPWR VPWR sky130_ef_sc_hd__decap_12
XFILLER_0_21_63 VGND VGND VPWR VPWR sky130_fd_sc_hd__fill_1
Xstrobe_outbuf_9__0_ FrameStrobe_O_i\[9\] VGND VGND VPWR VPWR net214 sky130_fd_sc_hd__clkbuf_1
XInst_W_IO_switch_matrix_inst_cus_mux41_buf_EE4BEG7 net68 net70 net72 net74 ConfigBits\[58\]
+ ConfigBits\[59\] VGND VGND VPWR VPWR net160 sky130_fd_sc_hd__mux4_1
XFILLER_0_1_84 VGND VGND VPWR VPWR sky130_fd_sc_hd__decap_4
XInst_A_IO_1_bidirectional_frame_config_pass__3_ net1 VGND VGND VPWR VPWR A_O sky130_fd_sc_hd__clkbuf_2
XInst_W_IO_ConfigMem_Inst_frame1_bit1 net14 net46 VGND VGND VPWR VPWR ConfigBits\[51\]
+ Inst_W_IO_ConfigMem_Inst_frame1_bit1/Q_N sky130_fd_sc_hd__dlxbp_1
XFILLER_0_26_19 VGND VGND VPWR VPWR sky130_fd_sc_hd__decap_8
XFILLER_0_42_29 VGND VGND VPWR VPWR sky130_fd_sc_hd__decap_6
Xdata_inbuf_3__0_ net28 VGND VGND VPWR VPWR FrameData_O_i\[3\] sky130_fd_sc_hd__clkbuf_1
XTAP_349 VGND VPWR sky130_fd_sc_hd__tapvpwrvgnd_1
XTAP_338 VGND VPWR sky130_fd_sc_hd__tapvpwrvgnd_1
XFILLER_0_6_29 VGND VGND VPWR VPWR sky130_ef_sc_hd__decap_12
XTAP_305 VGND VPWR sky130_fd_sc_hd__tapvpwrvgnd_1
XTAP_316 VGND VPWR sky130_fd_sc_hd__tapvpwrvgnd_1
XTAP_327 VGND VPWR sky130_fd_sc_hd__tapvpwrvgnd_1
XFILLER_0_16_41 VGND VGND VPWR VPWR sky130_fd_sc_hd__decap_8
XFILLER_0_13_9 VGND VGND VPWR VPWR sky130_ef_sc_hd__decap_12
XFILLER_0_32_62 VGND VGND VPWR VPWR sky130_fd_sc_hd__fill_2
XFILLER_0_57_81 VGND VGND VPWR VPWR sky130_fd_sc_hd__decap_6
XTAP_179 VGND VPWR sky130_fd_sc_hd__tapvpwrvgnd_1
XTAP_168 VGND VPWR sky130_fd_sc_hd__tapvpwrvgnd_1
XTAP_157 VGND VPWR sky130_fd_sc_hd__tapvpwrvgnd_1
XFILLER_0_76_102 VGND VGND VPWR VPWR sky130_fd_sc_hd__fill_2
XFILLER_0_43_72 VGND VGND VPWR VPWR sky130_ef_sc_hd__decap_12
XFILLER_0_73_105 VGND VGND VPWR VPWR sky130_fd_sc_hd__decap_6
XFILLER_0_13_75 VGND VGND VPWR VPWR sky130_fd_sc_hd__decap_3
XFILLER_0_54_82 VGND VGND VPWR VPWR sky130_fd_sc_hd__fill_2
XFILLER_0_64_138 VGND VGND VPWR VPWR sky130_fd_sc_hd__fill_2
XFILLER_0_34_19 VGND VGND VPWR VPWR sky130_fd_sc_hd__decap_8
XFILLER_0_50_29 VGND VGND VPWR VPWR sky130_ef_sc_hd__decap_12
XFILLER_0_55_105 VGND VGND VPWR VPWR sky130_fd_sc_hd__fill_1
XInst_W_IO_switch_matrix_inst_cus_mux81_buf_B_T_cus_mux41_buf_inst1_219 VGND VGND
+ VPWR VPWR net219 Inst_W_IO_switch_matrix_inst_cus_mux81_buf_B_T_cus_mux41_buf_inst1_219/LO
+ sky130_fd_sc_hd__conb_1
XFILLER_0_24_41 VGND VGND VPWR VPWR sky130_fd_sc_hd__decap_8
XFILLER_0_24_85 VGND VGND VPWR VPWR sky130_ef_sc_hd__decap_12
Xoutput200 net200 VGND VGND VPWR VPWR FrameStrobe_O[14] sky130_fd_sc_hd__buf_2
Xoutput211 net211 VGND VGND VPWR VPWR FrameStrobe_O[6] sky130_fd_sc_hd__buf_2
XFILLER_0_57_3 VGND VGND VPWR VPWR sky130_ef_sc_hd__decap_12
XFILLER_0_65_81 VGND VGND VPWR VPWR sky130_ef_sc_hd__decap_12
XFILLER_0_60_141 VGND VGND VPWR VPWR sky130_fd_sc_hd__fill_2
XFILLER_0_10_21 VGND VGND VPWR VPWR sky130_fd_sc_hd__decap_6
XFILLER_0_9_18 VGND VGND VPWR VPWR sky130_ef_sc_hd__decap_12
Xdata_outbuf_30__0_ FrameData_O_i\[30\] VGND VGND VPWR VPWR net186 sky130_fd_sc_hd__clkbuf_1
XFILLER_0_42_141 VGND VGND VPWR VPWR sky130_fd_sc_hd__fill_2
XFILLER_0_76_91 VGND VGND VPWR VPWR sky130_fd_sc_hd__fill_2
Xdata_outbuf_21__0_ FrameData_O_i\[21\] VGND VGND VPWR VPWR net176 sky130_fd_sc_hd__clkbuf_1
XFILLER_0_72_27 VGND VGND VPWR VPWR sky130_fd_sc_hd__fill_1
Xdata_outbuf_12__0_ FrameData_O_i\[12\] VGND VGND VPWR VPWR net166 sky130_fd_sc_hd__clkbuf_1
XInst_W_IO_switch_matrix_inst_cus_mux81_buf_A_T_cus_mux41_buf_inst0 net74 net59 net60
+ net61 ConfigBits\[104\] ConfigBits\[105\] VGND VGND VPWR VPWR Inst_W_IO_switch_matrix_inst_cus_mux81_buf_A_T_cus_mux41_buf_inst0/X
+ sky130_fd_sc_hd__mux4_1
XFILLER_0_21_42 VGND VGND VPWR VPWR sky130_ef_sc_hd__decap_12
XFILLER_0_24_141 VGND VGND VPWR VPWR sky130_fd_sc_hd__fill_2
XInst_W_IO_switch_matrix_inst_cus_mux41_buf_EE4BEG8 net81 net83 net85 net76 ConfigBits\[60\]
+ ConfigBits\[61\] VGND VGND VPWR VPWR net161 sky130_fd_sc_hd__mux4_1
XInst_A_IO_1_bidirectional_frame_config_pass__2_ A_I VGND VGND VPWR VPWR net103 sky130_fd_sc_hd__clkbuf_1
XInst_W_IO_ConfigMem_Inst_frame1_bit2 net25 net46 VGND VGND VPWR VPWR ConfigBits\[52\]
+ Inst_W_IO_ConfigMem_Inst_frame1_bit2/Q_N sky130_fd_sc_hd__dlxbp_1
XTAP_339 VGND VPWR sky130_fd_sc_hd__tapvpwrvgnd_1
XTAP_328 VGND VPWR sky130_fd_sc_hd__tapvpwrvgnd_1
XTAP_306 VGND VPWR sky130_fd_sc_hd__tapvpwrvgnd_1
XTAP_317 VGND VPWR sky130_fd_sc_hd__tapvpwrvgnd_1
XFILLER_0_16_53 VGND VGND VPWR VPWR sky130_fd_sc_hd__fill_1
XFILLER_0_32_41 VGND VGND VPWR VPWR sky130_fd_sc_hd__fill_2
XFILLER_0_73_81 VGND VGND VPWR VPWR sky130_ef_sc_hd__decap_12
Xinput100 WW4END[7] VGND VGND VPWR VPWR net100 sky130_fd_sc_hd__dlymetal6s2s_1
XFILLER_0_37_19 VGND VGND VPWR VPWR sky130_ef_sc_hd__decap_12
XPHY_150 VGND VGND VPWR VPWR sky130_fd_sc_hd__decap_3
XTAP_169 VGND VPWR sky130_fd_sc_hd__tapvpwrvgnd_1
XTAP_158 VGND VPWR sky130_fd_sc_hd__tapvpwrvgnd_1
XFILLER_0_27_30 VGND VGND VPWR VPWR sky130_ef_sc_hd__decap_12
XFILLER_0_27_85 VGND VGND VPWR VPWR sky130_fd_sc_hd__fill_1
XFILLER_0_43_84 VGND VGND VPWR VPWR sky130_ef_sc_hd__decap_12
XFILLER_0_4_141 VGND VGND VPWR VPWR sky130_fd_sc_hd__fill_2
XFILLER_0_48_29 VGND VGND VPWR VPWR sky130_ef_sc_hd__decap_12
XFILLER_0_13_21 VGND VGND VPWR VPWR sky130_ef_sc_hd__decap_12
XFILLER_0_1_100 VGND VGND VPWR VPWR sky130_fd_sc_hd__decap_4
XFILLER_0_59_7 VGND VGND VPWR VPWR sky130_ef_sc_hd__decap_12
XFILLER_0_70_82 VGND VGND VPWR VPWR sky130_fd_sc_hd__fill_2
XFILLER_0_70_71 VGND VGND VPWR VPWR sky130_fd_sc_hd__fill_1
XFILLER_0_50_19 VGND VGND VPWR VPWR sky130_fd_sc_hd__decap_8
XFILLER_0_24_97 VGND VGND VPWR VPWR sky130_fd_sc_hd__fill_1
Xoutput201 net201 VGND VGND VPWR VPWR FrameStrobe_O[15] sky130_fd_sc_hd__clkbuf_4
Xoutput212 net212 VGND VGND VPWR VPWR FrameStrobe_O[7] sky130_fd_sc_hd__buf_2
XFILLER_0_40_41 VGND VGND VPWR VPWR sky130_ef_sc_hd__decap_12
XFILLER_0_40_85 VGND VGND VPWR VPWR sky130_ef_sc_hd__decap_12
XFILLER_0_4_85 VGND VGND VPWR VPWR sky130_ef_sc_hd__decap_12
XFILLER_0_4_41 VGND VGND VPWR VPWR sky130_ef_sc_hd__decap_12
XFILLER_0_65_93 VGND VGND VPWR VPWR sky130_ef_sc_hd__decap_12
XFILLER_0_10_77 VGND VGND VPWR VPWR sky130_fd_sc_hd__decap_6
XFILLER_0_51_131 VGND VGND VPWR VPWR sky130_fd_sc_hd__decap_3
XFILLER_0_19_86 VGND VGND VPWR VPWR sky130_ef_sc_hd__decap_12
XFILLER_0_35_63 VGND VGND VPWR VPWR sky130_fd_sc_hd__fill_1
Xdata_inbuf_23__0_ net18 VGND VGND VPWR VPWR FrameData_O_i\[23\] sky130_fd_sc_hd__clkbuf_1
XFILLER_0_51_51 VGND VGND VPWR VPWR sky130_fd_sc_hd__decap_4
Xstrobe_inbuf_2__0_ net47 VGND VGND VPWR VPWR FrameStrobe_O_i\[2\] sky130_fd_sc_hd__clkbuf_1
Xdata_inbuf_14__0_ net8 VGND VGND VPWR VPWR FrameData_O_i\[14\] sky130_fd_sc_hd__clkbuf_1
XFILLER_0_56_29 VGND VGND VPWR VPWR sky130_ef_sc_hd__decap_12
XFILLER_0_21_54 VGND VGND VPWR VPWR sky130_fd_sc_hd__fill_2
XInst_W_IO_switch_matrix_inst_cus_mux81_buf_A_T_cus_mux41_buf_inst1 net62 net63 net216
+ net218 ConfigBits\[104\] ConfigBits\[105\] VGND VGND VPWR VPWR Inst_W_IO_switch_matrix_inst_cus_mux81_buf_A_T_cus_mux41_buf_inst1/X
+ sky130_fd_sc_hd__mux4_1
XFILLER_0_41_7 VGND VGND VPWR VPWR sky130_ef_sc_hd__decap_12
XInst_W_IO_switch_matrix_inst_cus_mux41_buf_EE4BEG9 net78 net80 net82 net84 ConfigBits\[62\]
+ ConfigBits\[63\] VGND VGND VPWR VPWR net162 sky130_fd_sc_hd__mux4_1
XFILLER_0_62_83 VGND VGND VPWR VPWR sky130_fd_sc_hd__fill_1
XFILLER_0_62_94 VGND VGND VPWR VPWR sky130_fd_sc_hd__decap_8
XFILLER_0_30_101 VGND VGND VPWR VPWR sky130_fd_sc_hd__fill_1
XInst_W_IO_ConfigMem_Inst_frame1_bit3 net28 net46 VGND VGND VPWR VPWR ConfigBits\[53\]
+ Inst_W_IO_ConfigMem_Inst_frame1_bit3/Q_N sky130_fd_sc_hd__dlxbp_1
XInst_A_IO_1_bidirectional_frame_config_pass__1_ UserCLK net1 VGND VGND VPWR VPWR
+ A_Q sky130_fd_sc_hd__dfxtp_1
XTAP_329 VGND VPWR sky130_fd_sc_hd__tapvpwrvgnd_1
XTAP_307 VGND VPWR sky130_fd_sc_hd__tapvpwrvgnd_1
XTAP_318 VGND VPWR sky130_fd_sc_hd__tapvpwrvgnd_1
Xstrobe_outbuf_17__0_ FrameStrobe_O_i\[17\] VGND VGND VPWR VPWR net203 sky130_fd_sc_hd__clkbuf_1
XFILLER_0_16_21 VGND VGND VPWR VPWR sky130_fd_sc_hd__decap_6
XFILLER_0_8_139 VGND VGND VPWR VPWR sky130_fd_sc_hd__fill_1
XFILLER_0_73_93 VGND VGND VPWR VPWR sky130_ef_sc_hd__decap_12
Xinput101 WW4END[8] VGND VGND VPWR VPWR net101 sky130_fd_sc_hd__clkbuf_2
XFILLER_0_53_19 VGND VGND VPWR VPWR sky130_ef_sc_hd__decap_12
XPHY_151 VGND VGND VPWR VPWR sky130_fd_sc_hd__decap_3
XPHY_140 VGND VGND VPWR VPWR sky130_fd_sc_hd__decap_3
XTAP_159 VGND VPWR sky130_fd_sc_hd__tapvpwrvgnd_1
XFILLER_0_27_42 VGND VGND VPWR VPWR sky130_ef_sc_hd__decap_12
XFILLER_0_76_115 VGND VGND VPWR VPWR sky130_fd_sc_hd__decap_4
XFILLER_0_43_96 VGND VGND VPWR VPWR sky130_fd_sc_hd__decap_4
XFILLER_0_64_29 VGND VGND VPWR VPWR sky130_ef_sc_hd__decap_12
XFILLER_0_13_33 VGND VGND VPWR VPWR sky130_fd_sc_hd__decap_8
XFILLER_0_38_41 VGND VGND VPWR VPWR sky130_fd_sc_hd__decap_6
XFILLER_0_38_63 VGND VGND VPWR VPWR sky130_fd_sc_hd__decap_6
XFILLER_0_38_85 VGND VGND VPWR VPWR sky130_fd_sc_hd__decap_8
XFILLER_0_70_94 VGND VGND VPWR VPWR sky130_ef_sc_hd__decap_12
Xstrobe_inbuf_14__0_ net40 VGND VGND VPWR VPWR FrameStrobe_O_i\[14\] sky130_fd_sc_hd__clkbuf_2
XFILLER_0_40_53 VGND VGND VPWR VPWR sky130_ef_sc_hd__decap_12
Xoutput202 net202 VGND VGND VPWR VPWR FrameStrobe_O[16] sky130_fd_sc_hd__buf_2
Xoutput213 net213 VGND VGND VPWR VPWR FrameStrobe_O[8] sky130_fd_sc_hd__buf_2
XFILLER_0_71_7 VGND VGND VPWR VPWR sky130_ef_sc_hd__decap_12
XFILLER_0_40_97 VGND VGND VPWR VPWR sky130_fd_sc_hd__decap_6
XFILLER_0_4_97 VGND VGND VPWR VPWR sky130_ef_sc_hd__decap_12
XFILLER_0_4_53 VGND VGND VPWR VPWR sky130_ef_sc_hd__decap_12
XFILLER_0_61_19 VGND VGND VPWR VPWR sky130_ef_sc_hd__decap_12
XFILLER_0_51_110 VGND VGND VPWR VPWR sky130_fd_sc_hd__fill_2
XFILLER_0_19_21 VGND VGND VPWR VPWR sky130_ef_sc_hd__decap_12
XFILLER_0_19_98 VGND VGND VPWR VPWR sky130_fd_sc_hd__decap_4
XFILLER_0_76_71 VGND VGND VPWR VPWR sky130_fd_sc_hd__fill_1
XFILLER_0_33_121 VGND VGND VPWR VPWR sky130_fd_sc_hd__decap_3
XInst_W_IO_ConfigMem_Inst_frame3_bit30 net26 net48 VGND VGND VPWR VPWR ConfigBits\[16\]
+ Inst_W_IO_ConfigMem_Inst_frame3_bit30/Q_N sky130_fd_sc_hd__dlxbp_1
XFILLER_0_56_19 VGND VGND VPWR VPWR sky130_fd_sc_hd__decap_8
XFILLER_0_72_29 VGND VGND VPWR VPWR sky130_ef_sc_hd__decap_12
Xdata_inbuf_6__0_ net31 VGND VGND VPWR VPWR FrameData_O_i\[6\] sky130_fd_sc_hd__clkbuf_1
XFILLER_0_21_99 VGND VGND VPWR VPWR sky130_fd_sc_hd__decap_3
XFILLER_0_34_7 VGND VGND VPWR VPWR sky130_ef_sc_hd__decap_12
XFILLER_0_46_41 VGND VGND VPWR VPWR sky130_fd_sc_hd__fill_1
XFILLER_0_46_85 VGND VGND VPWR VPWR sky130_ef_sc_hd__decap_12
XFILLER_0_1_54 VGND VGND VPWR VPWR sky130_fd_sc_hd__fill_2
XFILLER_0_1_76 VGND VGND VPWR VPWR sky130_fd_sc_hd__decap_4
XFILLER_0_62_51 VGND VGND VPWR VPWR sky130_ef_sc_hd__decap_12
XInst_A_IO_1_bidirectional_frame_config_pass__0_ A_T VGND VGND VPWR VPWR net104 sky130_fd_sc_hd__inv_2
XInst_W_IO_ConfigMem_Inst_frame1_bit4 net29 net46 VGND VGND VPWR VPWR ConfigBits\[54\]
+ Inst_W_IO_ConfigMem_Inst_frame1_bit4/Q_N sky130_fd_sc_hd__dlxbp_1
XFILLER_0_21_113 VGND VGND VPWR VPWR sky130_fd_sc_hd__decap_6
XTAP_308 VGND VPWR sky130_fd_sc_hd__tapvpwrvgnd_1
XTAP_319 VGND VPWR sky130_fd_sc_hd__tapvpwrvgnd_1
XFILLER_0_12_113 VGND VGND VPWR VPWR sky130_fd_sc_hd__fill_2
XFILLER_0_57_51 VGND VGND VPWR VPWR sky130_fd_sc_hd__decap_4
Xinput102 WW4END[9] VGND VGND VPWR VPWR net102 sky130_fd_sc_hd__dlymetal6s2s_1
XPHY_152 VGND VGND VPWR VPWR sky130_fd_sc_hd__decap_3
XPHY_141 VGND VGND VPWR VPWR sky130_fd_sc_hd__decap_3
XPHY_130 VGND VGND VPWR VPWR sky130_fd_sc_hd__decap_3
XFILLER_0_27_54 VGND VGND VPWR VPWR sky130_fd_sc_hd__fill_2
XFILLER_0_43_31 VGND VGND VPWR VPWR sky130_ef_sc_hd__decap_12
XFILLER_0_4_121 VGND VGND VPWR VPWR sky130_ef_sc_hd__decap_12
XFILLER_0_68_83 VGND VGND VPWR VPWR sky130_fd_sc_hd__fill_1
XFILLER_0_67_105 VGND VGND VPWR VPWR sky130_fd_sc_hd__fill_2
XFILLER_0_67_116 VGND VGND VPWR VPWR sky130_fd_sc_hd__fill_1
XFILLER_0_13_67 VGND VGND VPWR VPWR sky130_fd_sc_hd__decap_8
XFILLER_0_1_124 VGND VGND VPWR VPWR sky130_fd_sc_hd__decap_3
XFILLER_0_54_41 VGND VGND VPWR VPWR sky130_ef_sc_hd__decap_12
XFILLER_0_72_141 VGND VGND VPWR VPWR sky130_fd_sc_hd__fill_2
XFILLER_0_59_19 VGND VGND VPWR VPWR sky130_ef_sc_hd__decap_12
XFILLER_0_40_65 VGND VGND VPWR VPWR sky130_fd_sc_hd__decap_3
XFILLER_0_54_141 VGND VGND VPWR VPWR sky130_fd_sc_hd__fill_2
Xoutput214 net214 VGND VGND VPWR VPWR FrameStrobe_O[9] sky130_fd_sc_hd__buf_2
Xoutput203 net203 VGND VGND VPWR VPWR FrameStrobe_O[17] sky130_fd_sc_hd__clkbuf_4
XFILLER_0_49_63 VGND VGND VPWR VPWR sky130_fd_sc_hd__fill_1
XFILLER_0_4_65 VGND VGND VPWR VPWR sky130_ef_sc_hd__decap_12
Xdata_outbuf_24__0_ FrameData_O_i\[24\] VGND VGND VPWR VPWR net179 sky130_fd_sc_hd__clkbuf_1
XFILLER_0_36_141 VGND VGND VPWR VPWR sky130_fd_sc_hd__fill_2
Xdata_outbuf_15__0_ FrameData_O_i\[15\] VGND VGND VPWR VPWR net169 sky130_fd_sc_hd__clkbuf_1
XFILLER_0_19_33 VGND VGND VPWR VPWR sky130_fd_sc_hd__decap_8
XFILLER_0_42_100 VGND VGND VPWR VPWR sky130_fd_sc_hd__fill_2
XFILLER_0_76_83 VGND VGND VPWR VPWR sky130_fd_sc_hd__fill_1
XFILLER_0_18_141 VGND VGND VPWR VPWR sky130_fd_sc_hd__fill_2
XInst_W_IO_ConfigMem_Inst_frame3_bit20 net15 net48 VGND VGND VPWR VPWR ConfigBits\[6\]
+ Inst_W_IO_ConfigMem_Inst_frame3_bit20/Q_N sky130_fd_sc_hd__dlxbp_1
XInst_W_IO_ConfigMem_Inst_frame3_bit31 net27 net48 VGND VGND VPWR VPWR ConfigBits\[17\]
+ Inst_W_IO_ConfigMem_Inst_frame3_bit31/Q_N sky130_fd_sc_hd__dlxbp_1
XFILLER_0_1_22 VGND VGND VPWR VPWR sky130_ef_sc_hd__decap_12
XFILLER_0_46_97 VGND VGND VPWR VPWR sky130_fd_sc_hd__decap_4
XFILLER_0_62_41 VGND VGND VPWR VPWR sky130_fd_sc_hd__decap_6
XFILLER_0_62_63 VGND VGND VPWR VPWR sky130_ef_sc_hd__decap_12
XInst_W_IO_ConfigMem_Inst_frame1_bit5 net30 net46 VGND VGND VPWR VPWR ConfigBits\[55\]
+ Inst_W_IO_ConfigMem_Inst_frame1_bit5/Q_N sky130_fd_sc_hd__dlxbp_1
XTAP_309 VGND VPWR sky130_fd_sc_hd__tapvpwrvgnd_1
XFILLER_0_67_19 VGND VGND VPWR VPWR sky130_ef_sc_hd__decap_12
XFILLER_0_32_77 VGND VGND VPWR VPWR sky130_fd_sc_hd__decap_6
XFILLER_0_18_3 VGND VGND VPWR VPWR sky130_ef_sc_hd__decap_12
XInst_W_IO_ConfigMem_Inst_frame2_bit30 net26 net47 VGND VGND VPWR VPWR ConfigBits\[48\]
+ Inst_W_IO_ConfigMem_Inst_frame2_bit30/Q_N sky130_fd_sc_hd__dlxbp_1
XPHY_153 VGND VGND VPWR VPWR sky130_fd_sc_hd__decap_3
XPHY_142 VGND VGND VPWR VPWR sky130_fd_sc_hd__decap_3
XPHY_120 VGND VGND VPWR VPWR sky130_fd_sc_hd__decap_3
XPHY_131 VGND VGND VPWR VPWR sky130_fd_sc_hd__decap_3
XFILLER_0_76_139 VGND VGND VPWR VPWR sky130_fd_sc_hd__fill_1
XPHY_0 VGND VGND VPWR VPWR sky130_fd_sc_hd__decap_3
XFILLER_0_27_77 VGND VGND VPWR VPWR sky130_fd_sc_hd__decap_8
XFILLER_0_43_43 VGND VGND VPWR VPWR sky130_ef_sc_hd__decap_12
XFILLER_0_4_133 VGND VGND VPWR VPWR sky130_fd_sc_hd__decap_3
XFILLER_0_70_41 VGND VGND VPWR VPWR sky130_ef_sc_hd__decap_12
XFILLER_0_54_53 VGND VGND VPWR VPWR sky130_ef_sc_hd__decap_12
XFILLER_0_64_109 VGND VGND VPWR VPWR sky130_fd_sc_hd__fill_2
XFILLER_0_63_142 VGND VGND VPWR VPWR sky130_fd_sc_hd__fill_1
XInst_W_IO_switch_matrix_inst_cus_mux21_E1BEG1_break_comb_loop_inst1__0_ A_Q VGND
+ VGND VPWR VPWR Inst_W_IO_switch_matrix_inst_cus_mux21_E1BEG1__3_/A sky130_fd_sc_hd__clkbuf_1
Xdata_outbuf_2__0_ FrameData_O_i\[2\] VGND VGND VPWR VPWR net185 sky130_fd_sc_hd__clkbuf_1
Xoutput215 net215 VGND VGND VPWR VPWR UserCLKo sky130_fd_sc_hd__buf_1
Xoutput204 net204 VGND VGND VPWR VPWR FrameStrobe_O[18] sky130_fd_sc_hd__clkbuf_4
XFILLER_0_49_31 VGND VGND VPWR VPWR sky130_ef_sc_hd__decap_12
XFILLER_0_4_77 VGND VGND VPWR VPWR sky130_fd_sc_hd__decap_6
Xdata_inbuf_26__0_ net21 VGND VGND VPWR VPWR FrameData_O_i\[26\] sky130_fd_sc_hd__clkbuf_1
Xstrobe_inbuf_5__0_ net50 VGND VGND VPWR VPWR FrameStrobe_O_i\[5\] sky130_fd_sc_hd__clkbuf_1
Xdata_inbuf_17__0_ net11 VGND VGND VPWR VPWR FrameData_O_i\[17\] sky130_fd_sc_hd__clkbuf_1
XFILLER_0_35_55 VGND VGND VPWR VPWR sky130_fd_sc_hd__fill_1
XFILLER_0_27_131 VGND VGND VPWR VPWR sky130_fd_sc_hd__fill_2
XFILLER_0_48_3 VGND VGND VPWR VPWR sky130_ef_sc_hd__decap_12
XInst_W_IO_ConfigMem_Inst_frame3_bit21 net16 net48 VGND VGND VPWR VPWR ConfigBits\[7\]
+ Inst_W_IO_ConfigMem_Inst_frame3_bit21/Q_N sky130_fd_sc_hd__dlxbp_1
XFILLER_0_21_57 VGND VGND VPWR VPWR sky130_fd_sc_hd__decap_6
XFILLER_0_21_79 VGND VGND VPWR VPWR sky130_fd_sc_hd__decap_4
XFILLER_0_1_34 VGND VGND VPWR VPWR sky130_ef_sc_hd__decap_12
XFILLER_0_62_75 VGND VGND VPWR VPWR sky130_fd_sc_hd__decap_8
XInst_W_IO_switch_matrix_inst_cus_mux21_E1BEG2_break_comb_loop_inst0__0_ net56 VGND
+ VGND VPWR VPWR Inst_W_IO_switch_matrix_inst_cus_mux21_E1BEG2__2_/A sky130_fd_sc_hd__clkbuf_1
XInst_W_IO_ConfigMem_Inst_frame1_bit6 net31 net46 VGND VGND VPWR VPWR ConfigBits\[56\]
+ Inst_W_IO_ConfigMem_Inst_frame1_bit6/Q_N sky130_fd_sc_hd__dlxbp_1
XInst_W_IO_ConfigMem_Inst_frame2_bit20 net15 net47 VGND VGND VPWR VPWR ConfigBits\[38\]
+ Inst_W_IO_ConfigMem_Inst_frame2_bit20/Q_N sky130_fd_sc_hd__dlxbp_1
XInst_W_IO_ConfigMem_Inst_frame2_bit31 net27 net47 VGND VGND VPWR VPWR ConfigBits\[49\]
+ Inst_W_IO_ConfigMem_Inst_frame2_bit31/Q_N sky130_fd_sc_hd__dlxbp_1
XPHY_154 VGND VGND VPWR VPWR sky130_fd_sc_hd__decap_3
XPHY_143 VGND VGND VPWR VPWR sky130_fd_sc_hd__decap_3
XPHY_110 VGND VGND VPWR VPWR sky130_fd_sc_hd__decap_3
XPHY_121 VGND VGND VPWR VPWR sky130_fd_sc_hd__decap_3
XPHY_132 VGND VGND VPWR VPWR sky130_fd_sc_hd__decap_3
XFILLER_0_76_129 VGND VGND VPWR VPWR sky130_fd_sc_hd__fill_1
XFILLER_0_76_107 VGND VGND VPWR VPWR sky130_fd_sc_hd__decap_4
XPHY_1 VGND VGND VPWR VPWR sky130_fd_sc_hd__decap_3
XFILLER_0_43_55 VGND VGND VPWR VPWR sky130_fd_sc_hd__fill_1
Xstrobe_outbuf_2__0_ FrameStrobe_O_i\[2\] VGND VGND VPWR VPWR net207 sky130_fd_sc_hd__buf_1
XFILLER_0_68_85 VGND VGND VPWR VPWR sky130_ef_sc_hd__decap_12
XFILLER_0_68_41 VGND VGND VPWR VPWR sky130_ef_sc_hd__decap_12
Xstrobe_inbuf_17__0_ net43 VGND VGND VPWR VPWR FrameStrobe_O_i\[17\] sky130_fd_sc_hd__clkbuf_2
XInst_W_IO_ConfigMem_Inst_frame1_bit30 net26 net46 VGND VGND VPWR VPWR ConfigBits\[80\]
+ Inst_W_IO_ConfigMem_Inst_frame1_bit30/Q_N sky130_fd_sc_hd__dlxbp_1
XFILLER_0_54_65 VGND VGND VPWR VPWR sky130_fd_sc_hd__fill_2
XFILLER_0_72_121 VGND VGND VPWR VPWR sky130_ef_sc_hd__decap_12
XFILLER_0_70_75 VGND VGND VPWR VPWR sky130_fd_sc_hd__decap_4
XFILLER_0_70_53 VGND VGND VPWR VPWR sky130_ef_sc_hd__decap_12
Xoutput205 net205 VGND VGND VPWR VPWR FrameStrobe_O[19] sky130_fd_sc_hd__clkbuf_4
XFILLER_0_49_43 VGND VGND VPWR VPWR sky130_ef_sc_hd__decap_12
XTAP_290 VGND VPWR sky130_fd_sc_hd__tapvpwrvgnd_1
XFILLER_0_51_113 VGND VGND VPWR VPWR sky130_fd_sc_hd__decap_3
XFILLER_0_19_57 VGND VGND VPWR VPWR sky130_ef_sc_hd__decap_12
XFILLER_0_51_55 VGND VGND VPWR VPWR sky130_fd_sc_hd__fill_1
Xdata_inbuf_9__0_ net34 VGND VGND VPWR VPWR FrameData_O_i\[9\] sky130_fd_sc_hd__clkbuf_1
XFILLER_0_76_85 VGND VGND VPWR VPWR sky130_fd_sc_hd__decap_3
XFILLER_0_76_63 VGND VGND VPWR VPWR sky130_fd_sc_hd__fill_1
XFILLER_0_33_102 VGND VGND VPWR VPWR sky130_fd_sc_hd__decap_4