*SPEF "ieee 1481-1999"
*DESIGN "N_term_DSP"
*DATE "11:11:11 Fri 11 11, 1111"
*VENDOR "OpenRCX"
*PROGRAM "Parallel Extraction"
*VERSION "1.0"
*DESIGN_FLOW "NAME_SCOPE LOCAL" "PIN_CAP NONE"
*DIVIDER /
*DELIMITER :
*BUS_DELIMITER []
*T_UNIT 1 NS
*C_UNIT 1 PF
*R_UNIT 1 OHM
*L_UNIT 1 HENRY

*NAME_MAP
*1 FrameStrobe[0]
*2 FrameStrobe[10]
*3 FrameStrobe[11]
*4 FrameStrobe[12]
*5 FrameStrobe[13]
*6 FrameStrobe[14]
*7 FrameStrobe[15]
*8 FrameStrobe[16]
*9 FrameStrobe[17]
*10 FrameStrobe[18]
*11 FrameStrobe[19]
*12 FrameStrobe[1]
*13 FrameStrobe[2]
*14 FrameStrobe[3]
*15 FrameStrobe[4]
*16 FrameStrobe[5]
*17 FrameStrobe[6]
*18 FrameStrobe[7]
*19 FrameStrobe[8]
*20 FrameStrobe[9]
*21 FrameStrobe_O[0]
*22 FrameStrobe_O[10]
*23 FrameStrobe_O[11]
*24 FrameStrobe_O[12]
*25 FrameStrobe_O[13]
*26 FrameStrobe_O[14]
*27 FrameStrobe_O[15]
*28 FrameStrobe_O[16]
*29 FrameStrobe_O[17]
*30 FrameStrobe_O[18]
*31 FrameStrobe_O[19]
*32 FrameStrobe_O[1]
*33 FrameStrobe_O[2]
*34 FrameStrobe_O[3]
*35 FrameStrobe_O[4]
*36 FrameStrobe_O[5]
*37 FrameStrobe_O[6]
*38 FrameStrobe_O[7]
*39 FrameStrobe_O[8]
*40 FrameStrobe_O[9]
*41 N1END[0]
*42 N1END[1]
*43 N1END[2]
*44 N1END[3]
*45 N2END[0]
*46 N2END[1]
*47 N2END[2]
*48 N2END[3]
*49 N2END[4]
*50 N2END[5]
*51 N2END[6]
*52 N2END[7]
*53 N2MID[0]
*54 N2MID[1]
*55 N2MID[2]
*56 N2MID[3]
*57 N2MID[4]
*58 N2MID[5]
*59 N2MID[6]
*60 N2MID[7]
*61 N4END[0]
*62 N4END[10]
*63 N4END[11]
*64 N4END[12]
*65 N4END[13]
*66 N4END[14]
*67 N4END[15]
*68 N4END[1]
*69 N4END[2]
*70 N4END[3]
*71 N4END[4]
*72 N4END[5]
*73 N4END[6]
*74 N4END[7]
*75 N4END[8]
*76 N4END[9]
*77 NN4END[0]
*78 NN4END[10]
*79 NN4END[11]
*80 NN4END[12]
*81 NN4END[13]
*82 NN4END[14]
*83 NN4END[15]
*84 NN4END[1]
*85 NN4END[2]
*86 NN4END[3]
*87 NN4END[4]
*88 NN4END[5]
*89 NN4END[6]
*90 NN4END[7]
*91 NN4END[8]
*92 NN4END[9]
*93 S1BEG[0]
*94 S1BEG[1]
*95 S1BEG[2]
*96 S1BEG[3]
*97 S2BEG[0]
*98 S2BEG[1]
*99 S2BEG[2]
*100 S2BEG[3]
*101 S2BEG[4]
*102 S2BEG[5]
*103 S2BEG[6]
*104 S2BEG[7]
*105 S2BEGb[0]
*106 S2BEGb[1]
*107 S2BEGb[2]
*108 S2BEGb[3]
*109 S2BEGb[4]
*110 S2BEGb[5]
*111 S2BEGb[6]
*112 S2BEGb[7]
*113 S4BEG[0]
*114 S4BEG[10]
*115 S4BEG[11]
*116 S4BEG[12]
*117 S4BEG[13]
*118 S4BEG[14]
*119 S4BEG[15]
*120 S4BEG[1]
*121 S4BEG[2]
*122 S4BEG[3]
*123 S4BEG[4]
*124 S4BEG[5]
*125 S4BEG[6]
*126 S4BEG[7]
*127 S4BEG[8]
*128 S4BEG[9]
*129 SS4BEG[0]
*130 SS4BEG[10]
*131 SS4BEG[11]
*132 SS4BEG[12]
*133 SS4BEG[13]
*134 SS4BEG[14]
*135 SS4BEG[15]
*136 SS4BEG[1]
*137 SS4BEG[2]
*138 SS4BEG[3]
*139 SS4BEG[4]
*140 SS4BEG[5]
*141 SS4BEG[6]
*142 SS4BEG[7]
*143 SS4BEG[8]
*144 SS4BEG[9]
*145 UserCLK
*146 UserCLKo
*149 FrameStrobe_O_i\[0\]
*150 FrameStrobe_O_i\[10\]
*151 FrameStrobe_O_i\[11\]
*152 FrameStrobe_O_i\[12\]
*153 FrameStrobe_O_i\[13\]
*154 FrameStrobe_O_i\[14\]
*155 FrameStrobe_O_i\[15\]
*156 FrameStrobe_O_i\[16\]
*157 FrameStrobe_O_i\[17\]
*158 FrameStrobe_O_i\[18\]
*159 FrameStrobe_O_i\[19\]
*160 FrameStrobe_O_i\[1\]
*161 FrameStrobe_O_i\[2\]
*162 FrameStrobe_O_i\[3\]
*163 FrameStrobe_O_i\[4\]
*164 FrameStrobe_O_i\[5\]
*165 FrameStrobe_O_i\[6\]
*166 FrameStrobe_O_i\[7\]
*167 FrameStrobe_O_i\[8\]
*168 FrameStrobe_O_i\[9\]
*169 net1
*170 net10
*171 net100
*172 net101
*173 net102
*174 net103
*175 net104
*176 net105
*177 net106
*178 net107
*179 net108
*180 net109
*181 net11
*182 net110
*183 net111
*184 net112
*185 net113
*186 net114
*187 net115
*188 net116
*189 net117
*190 net118
*191 net119
*192 net12
*193 net120
*194 net121
*195 net122
*196 net123
*197 net124
*198 net125
*199 net126
*200 net127
*201 net128
*202 net129
*203 net13
*204 net130
*205 net131
*206 net132
*207 net133
*208 net134
*209 net135
*210 net136
*211 net137
*212 net138
*213 net139
*214 net14
*215 net140
*216 net141
*217 net142
*218 net143
*219 net144
*220 net145
*221 net146
*222 net15
*223 net16
*224 net17
*225 net18
*226 net19
*227 net2
*228 net20
*229 net21
*230 net22
*231 net23
*232 net24
*233 net25
*234 net26
*235 net27
*236 net28
*237 net29
*238 net3
*239 net30
*240 net31
*241 net32
*242 net33
*243 net34
*244 net35
*245 net36
*246 net37
*247 net38
*248 net39
*249 net4
*250 net40
*251 net41
*252 net42
*253 net43
*254 net44
*255 net45
*256 net46
*257 net47
*258 net48
*259 net49
*260 net5
*261 net50
*262 net51
*263 net52
*264 net53
*265 net54
*266 net55
*267 net56
*268 net57
*269 net58
*270 net59
*271 net6
*272 net60
*273 net61
*274 net62
*275 net63
*276 net64
*277 net65
*278 net66
*279 net67
*280 net68
*281 net69
*282 net7
*283 net70
*284 net71
*285 net72
*286 net73
*287 net74
*288 net75
*289 net76
*290 net77
*291 net78
*292 net79
*293 net8
*294 net80
*295 net81
*296 net82
*297 net83
*298 net84
*299 net85
*300 net86
*301 net87
*302 net88
*303 net89
*304 net9
*305 net90
*306 net91
*307 net92
*308 net93
*309 net94
*310 net95
*311 net96
*312 net97
*313 net98
*314 net99
*315 ANTENNA_1
*316 ANTENNA_2
*317 ANTENNA_3
*318 ANTENNA_4
*319 ANTENNA_5
*320 ANTENNA_6
*321 ANTENNA_7
*322 FILLER_0_0_15
*323 FILLER_0_0_169
*324 FILLER_0_0_174
*325 FILLER_0_0_197
*326 FILLER_0_0_218
*327 FILLER_0_0_225
*328 FILLER_0_0_233
*329 FILLER_0_0_249
*330 FILLER_0_0_27
*331 FILLER_0_0_279
*332 FILLER_0_0_29
*333 FILLER_0_0_3
*334 FILLER_0_0_349
*335 FILLER_0_0_353
*336 FILLER_0_0_37
*337 FILLER_0_0_371
*338 FILLER_0_0_390
*339 FILLER_0_0_445
*340 FILLER_0_0_449
*341 FILLER_0_0_457
*342 FILLER_0_10_109
*343 FILLER_0_10_121
*344 FILLER_0_10_133
*345 FILLER_0_10_139
*346 FILLER_0_10_141
*347 FILLER_0_10_15
*348 FILLER_0_10_153
*349 FILLER_0_10_165
*350 FILLER_0_10_177
*351 FILLER_0_10_189
*352 FILLER_0_10_195
*353 FILLER_0_10_197
*354 FILLER_0_10_209
*355 FILLER_0_10_221
*356 FILLER_0_10_233
*357 FILLER_0_10_245
*358 FILLER_0_10_251
*359 FILLER_0_10_253
*360 FILLER_0_10_265
*361 FILLER_0_10_27
*362 FILLER_0_10_277
*363 FILLER_0_10_289
*364 FILLER_0_10_29
*365 FILLER_0_10_3
*366 FILLER_0_10_301
*367 FILLER_0_10_307
*368 FILLER_0_10_309
*369 FILLER_0_10_321
*370 FILLER_0_10_333
*371 FILLER_0_10_345
*372 FILLER_0_10_357
*373 FILLER_0_10_363
*374 FILLER_0_10_365
*375 FILLER_0_10_377
*376 FILLER_0_10_389
*377 FILLER_0_10_401
*378 FILLER_0_10_41
*379 FILLER_0_10_413
*380 FILLER_0_10_419
*381 FILLER_0_10_421
*382 FILLER_0_10_433
*383 FILLER_0_10_445
*384 FILLER_0_10_457
*385 FILLER_0_10_53
*386 FILLER_0_10_65
*387 FILLER_0_10_77
*388 FILLER_0_10_83
*389 FILLER_0_10_85
*390 FILLER_0_10_97
*391 FILLER_0_11_105
*392 FILLER_0_11_111
*393 FILLER_0_11_113
*394 FILLER_0_11_125
*395 FILLER_0_11_137
*396 FILLER_0_11_149
*397 FILLER_0_11_15
*398 FILLER_0_11_161
*399 FILLER_0_11_167
*400 FILLER_0_11_169
*401 FILLER_0_11_181
*402 FILLER_0_11_193
*403 FILLER_0_11_205
*404 FILLER_0_11_217
*405 FILLER_0_11_223
*406 FILLER_0_11_225
*407 FILLER_0_11_237
*408 FILLER_0_11_249
*409 FILLER_0_11_261
*410 FILLER_0_11_27
*411 FILLER_0_11_273
*412 FILLER_0_11_279
*413 FILLER_0_11_281
*414 FILLER_0_11_293
*415 FILLER_0_11_3
*416 FILLER_0_11_305
*417 FILLER_0_11_317
*418 FILLER_0_11_329
*419 FILLER_0_11_335
*420 FILLER_0_11_337
*421 FILLER_0_11_349
*422 FILLER_0_11_361
*423 FILLER_0_11_373
*424 FILLER_0_11_385
*425 FILLER_0_11_39
*426 FILLER_0_11_391
*427 FILLER_0_11_393
*428 FILLER_0_11_405
*429 FILLER_0_11_417
*430 FILLER_0_11_429
*431 FILLER_0_11_441
*432 FILLER_0_11_447
*433 FILLER_0_11_449
*434 FILLER_0_11_457
*435 FILLER_0_11_51
*436 FILLER_0_11_55
*437 FILLER_0_11_57
*438 FILLER_0_11_69
*439 FILLER_0_11_81
*440 FILLER_0_11_93
*441 FILLER_0_12_109
*442 FILLER_0_12_121
*443 FILLER_0_12_133
*444 FILLER_0_12_139
*445 FILLER_0_12_141
*446 FILLER_0_12_15
*447 FILLER_0_12_153
*448 FILLER_0_12_165
*449 FILLER_0_12_177
*450 FILLER_0_12_189
*451 FILLER_0_12_195
*452 FILLER_0_12_197
*453 FILLER_0_12_209
*454 FILLER_0_12_221
*455 FILLER_0_12_233
*456 FILLER_0_12_245
*457 FILLER_0_12_251
*458 FILLER_0_12_253
*459 FILLER_0_12_265
*460 FILLER_0_12_27
*461 FILLER_0_12_277
*462 FILLER_0_12_289
*463 FILLER_0_12_29
*464 FILLER_0_12_3
*465 FILLER_0_12_301
*466 FILLER_0_12_307
*467 FILLER_0_12_309
*468 FILLER_0_12_321
*469 FILLER_0_12_333
*470 FILLER_0_12_345
*471 FILLER_0_12_357
*472 FILLER_0_12_363
*473 FILLER_0_12_365
*474 FILLER_0_12_377
*475 FILLER_0_12_389
*476 FILLER_0_12_401
*477 FILLER_0_12_41
*478 FILLER_0_12_413
*479 FILLER_0_12_419
*480 FILLER_0_12_421
*481 FILLER_0_12_433
*482 FILLER_0_12_445
*483 FILLER_0_12_457
*484 FILLER_0_12_53
*485 FILLER_0_12_65
*486 FILLER_0_12_77
*487 FILLER_0_12_83
*488 FILLER_0_12_85
*489 FILLER_0_12_97
*490 FILLER_0_13_109
*491 FILLER_0_13_113
*492 FILLER_0_13_120
*493 FILLER_0_13_13
*494 FILLER_0_13_132
*495 FILLER_0_13_147
*496 FILLER_0_13_159
*497 FILLER_0_13_166
*498 FILLER_0_13_169
*499 FILLER_0_13_181
*500 FILLER_0_13_189
*501 FILLER_0_13_195
*502 FILLER_0_13_197
*503 FILLER_0_13_205
*504 FILLER_0_13_21
*505 FILLER_0_13_212
*506 FILLER_0_13_225
*507 FILLER_0_13_235
*508 FILLER_0_13_247
*509 FILLER_0_13_251
*510 FILLER_0_13_253
*511 FILLER_0_13_258
*512 FILLER_0_13_270
*513 FILLER_0_13_278
*514 FILLER_0_13_285
*515 FILLER_0_13_29
*516 FILLER_0_13_297
*517 FILLER_0_13_304
*518 FILLER_0_13_309
*519 FILLER_0_13_321
*520 FILLER_0_13_327
*521 FILLER_0_13_335
*522 FILLER_0_13_337
*523 FILLER_0_13_343
*524 FILLER_0_13_350
*525 FILLER_0_13_362
*526 FILLER_0_13_365
*527 FILLER_0_13_373
*528 FILLER_0_13_385
*529 FILLER_0_13_391
*530 FILLER_0_13_399
*531 FILLER_0_13_41
*532 FILLER_0_13_411
*533 FILLER_0_13_419
*534 FILLER_0_13_421
*535 FILLER_0_13_433
*536 FILLER_0_13_437
*537 FILLER_0_13_444
*538 FILLER_0_13_449
*539 FILLER_0_13_453
*540 FILLER_0_13_51
*541 FILLER_0_13_55
*542 FILLER_0_13_57
*543 FILLER_0_13_69
*544 FILLER_0_13_74
*545 FILLER_0_13_82
*546 FILLER_0_13_85
*547 FILLER_0_13_89
*548 FILLER_0_13_9
*549 FILLER_0_13_97
*550 FILLER_0_1_102
*551 FILLER_0_1_110
*552 FILLER_0_1_113
*553 FILLER_0_1_125
*554 FILLER_0_1_137
*555 FILLER_0_1_15
*556 FILLER_0_1_169
*557 FILLER_0_1_216
*558 FILLER_0_1_238
*559 FILLER_0_1_252
*560 FILLER_0_1_266
*561 FILLER_0_1_27
*562 FILLER_0_1_279
*563 FILLER_0_1_281
*564 FILLER_0_1_285
*565 FILLER_0_1_3
*566 FILLER_0_1_332
*567 FILLER_0_1_361
*568 FILLER_0_1_365
*569 FILLER_0_1_376
*570 FILLER_0_1_39
*571 FILLER_0_1_390
*572 FILLER_0_1_393
*573 FILLER_0_1_398
*574 FILLER_0_1_403
*575 FILLER_0_1_410
*576 FILLER_0_1_418
*577 FILLER_0_1_426
*578 FILLER_0_1_438
*579 FILLER_0_1_446
*580 FILLER_0_1_449
*581 FILLER_0_1_457
*582 FILLER_0_1_51
*583 FILLER_0_1_55
*584 FILLER_0_1_57
*585 FILLER_0_1_69
*586 FILLER_0_1_81
*587 FILLER_0_1_90
*588 FILLER_0_2_109
*589 FILLER_0_2_121
*590 FILLER_0_2_133
*591 FILLER_0_2_139
*592 FILLER_0_2_141
*593 FILLER_0_2_15
*594 FILLER_0_2_153
*595 FILLER_0_2_163
*596 FILLER_0_2_167
*597 FILLER_0_2_172
*598 FILLER_0_2_176
*599 FILLER_0_2_180
*600 FILLER_0_2_184
*601 FILLER_0_2_191
*602 FILLER_0_2_195
*603 FILLER_0_2_197
*604 FILLER_0_2_220
*605 FILLER_0_2_225
*606 FILLER_0_2_244
*607 FILLER_0_2_253
*608 FILLER_0_2_257
*609 FILLER_0_2_27
*610 FILLER_0_2_29
*611 FILLER_0_2_291
*612 FILLER_0_2_3
*613 FILLER_0_2_312
*614 FILLER_0_2_322
*615 FILLER_0_2_333
*616 FILLER_0_2_345
*617 FILLER_0_2_352
*618 FILLER_0_2_371
*619 FILLER_0_2_380
*620 FILLER_0_2_392
*621 FILLER_0_2_399
*622 FILLER_0_2_41
*623 FILLER_0_2_411
*624 FILLER_0_2_417
*625 FILLER_0_2_421
*626 FILLER_0_2_427
*627 FILLER_0_2_431
*628 FILLER_0_2_443
*629 FILLER_0_2_452
*630 FILLER_0_2_53
*631 FILLER_0_2_65
*632 FILLER_0_2_77
*633 FILLER_0_2_83
*634 FILLER_0_2_85
*635 FILLER_0_2_97
*636 FILLER_0_3_105
*637 FILLER_0_3_111
*638 FILLER_0_3_113
*639 FILLER_0_3_125
*640 FILLER_0_3_137
*641 FILLER_0_3_149
*642 FILLER_0_3_15
*643 FILLER_0_3_161
*644 FILLER_0_3_167
*645 FILLER_0_3_169
*646 FILLER_0_3_181
*647 FILLER_0_3_193
*648 FILLER_0_3_205
*649 FILLER_0_3_217
*650 FILLER_0_3_222
*651 FILLER_0_3_228
*652 FILLER_0_3_240
*653 FILLER_0_3_252
*654 FILLER_0_3_267
*655 FILLER_0_3_27
*656 FILLER_0_3_279
*657 FILLER_0_3_281
*658 FILLER_0_3_297
*659 FILLER_0_3_3
*660 FILLER_0_3_308
*661 FILLER_0_3_312
*662 FILLER_0_3_324
*663 FILLER_0_3_337
*664 FILLER_0_3_349
*665 FILLER_0_3_361
*666 FILLER_0_3_373
*667 FILLER_0_3_385
*668 FILLER_0_3_39
*669 FILLER_0_3_391
*670 FILLER_0_3_393
*671 FILLER_0_3_405
*672 FILLER_0_3_417
*673 FILLER_0_3_429
*674 FILLER_0_3_441
*675 FILLER_0_3_447
*676 FILLER_0_3_449
*677 FILLER_0_3_457
*678 FILLER_0_3_51
*679 FILLER_0_3_55
*680 FILLER_0_3_57
*681 FILLER_0_3_69
*682 FILLER_0_3_81
*683 FILLER_0_3_93
*684 FILLER_0_4_109
*685 FILLER_0_4_121
*686 FILLER_0_4_133
*687 FILLER_0_4_139
*688 FILLER_0_4_141
*689 FILLER_0_4_15
*690 FILLER_0_4_153
*691 FILLER_0_4_165
*692 FILLER_0_4_177
*693 FILLER_0_4_189
*694 FILLER_0_4_195
*695 FILLER_0_4_197
*696 FILLER_0_4_209
*697 FILLER_0_4_221
*698 FILLER_0_4_233
*699 FILLER_0_4_245
*700 FILLER_0_4_251
*701 FILLER_0_4_253
*702 FILLER_0_4_265
*703 FILLER_0_4_27
*704 FILLER_0_4_277
*705 FILLER_0_4_289
*706 FILLER_0_4_29
*707 FILLER_0_4_3
*708 FILLER_0_4_301
*709 FILLER_0_4_307
*710 FILLER_0_4_309
*711 FILLER_0_4_321
*712 FILLER_0_4_333
*713 FILLER_0_4_345
*714 FILLER_0_4_357
*715 FILLER_0_4_363
*716 FILLER_0_4_365
*717 FILLER_0_4_377
*718 FILLER_0_4_389
*719 FILLER_0_4_401
*720 FILLER_0_4_41
*721 FILLER_0_4_413
*722 FILLER_0_4_419
*723 FILLER_0_4_421
*724 FILLER_0_4_433
*725 FILLER_0_4_445
*726 FILLER_0_4_457
*727 FILLER_0_4_53
*728 FILLER_0_4_65
*729 FILLER_0_4_77
*730 FILLER_0_4_83
*731 FILLER_0_4_85
*732 FILLER_0_4_97
*733 FILLER_0_5_105
*734 FILLER_0_5_111
*735 FILLER_0_5_113
*736 FILLER_0_5_125
*737 FILLER_0_5_137
*738 FILLER_0_5_149
*739 FILLER_0_5_15
*740 FILLER_0_5_161
*741 FILLER_0_5_167
*742 FILLER_0_5_169
*743 FILLER_0_5_181
*744 FILLER_0_5_193
*745 FILLER_0_5_205
*746 FILLER_0_5_217
*747 FILLER_0_5_223
*748 FILLER_0_5_225
*749 FILLER_0_5_237
*750 FILLER_0_5_249
*751 FILLER_0_5_261
*752 FILLER_0_5_27
*753 FILLER_0_5_273
*754 FILLER_0_5_279
*755 FILLER_0_5_281
*756 FILLER_0_5_293
*757 FILLER_0_5_3
*758 FILLER_0_5_305
*759 FILLER_0_5_317
*760 FILLER_0_5_329
*761 FILLER_0_5_335
*762 FILLER_0_5_337
*763 FILLER_0_5_349
*764 FILLER_0_5_361
*765 FILLER_0_5_373
*766 FILLER_0_5_385
*767 FILLER_0_5_39
*768 FILLER_0_5_391
*769 FILLER_0_5_393
*770 FILLER_0_5_405
*771 FILLER_0_5_417
*772 FILLER_0_5_429
*773 FILLER_0_5_441
*774 FILLER_0_5_447
*775 FILLER_0_5_449
*776 FILLER_0_5_457
*777 FILLER_0_5_51
*778 FILLER_0_5_55
*779 FILLER_0_5_57
*780 FILLER_0_5_69
*781 FILLER_0_5_81
*782 FILLER_0_5_93
*783 FILLER_0_6_109
*784 FILLER_0_6_121
*785 FILLER_0_6_133
*786 FILLER_0_6_139
*787 FILLER_0_6_141
*788 FILLER_0_6_15
*789 FILLER_0_6_153
*790 FILLER_0_6_165
*791 FILLER_0_6_177
*792 FILLER_0_6_189
*793 FILLER_0_6_195
*794 FILLER_0_6_197
*795 FILLER_0_6_209
*796 FILLER_0_6_221
*797 FILLER_0_6_233
*798 FILLER_0_6_245
*799 FILLER_0_6_251
*800 FILLER_0_6_253
*801 FILLER_0_6_265
*802 FILLER_0_6_27
*803 FILLER_0_6_277
*804 FILLER_0_6_289
*805 FILLER_0_6_29
*806 FILLER_0_6_3
*807 FILLER_0_6_301
*808 FILLER_0_6_307
*809 FILLER_0_6_309
*810 FILLER_0_6_321
*811 FILLER_0_6_333
*812 FILLER_0_6_345
*813 FILLER_0_6_357
*814 FILLER_0_6_363
*815 FILLER_0_6_365
*816 FILLER_0_6_377
*817 FILLER_0_6_389
*818 FILLER_0_6_401
*819 FILLER_0_6_41
*820 FILLER_0_6_413
*821 FILLER_0_6_419
*822 FILLER_0_6_421
*823 FILLER_0_6_433
*824 FILLER_0_6_445
*825 FILLER_0_6_457
*826 FILLER_0_6_53
*827 FILLER_0_6_65
*828 FILLER_0_6_77
*829 FILLER_0_6_83
*830 FILLER_0_6_85
*831 FILLER_0_6_97
*832 FILLER_0_7_105
*833 FILLER_0_7_111
*834 FILLER_0_7_113
*835 FILLER_0_7_125
*836 FILLER_0_7_137
*837 FILLER_0_7_149
*838 FILLER_0_7_15
*839 FILLER_0_7_161
*840 FILLER_0_7_167
*841 FILLER_0_7_169
*842 FILLER_0_7_181
*843 FILLER_0_7_193
*844 FILLER_0_7_205
*845 FILLER_0_7_217
*846 FILLER_0_7_223
*847 FILLER_0_7_225
*848 FILLER_0_7_237
*849 FILLER_0_7_249
*850 FILLER_0_7_261
*851 FILLER_0_7_27
*852 FILLER_0_7_273
*853 FILLER_0_7_279
*854 FILLER_0_7_281
*855 FILLER_0_7_293
*856 FILLER_0_7_3
*857 FILLER_0_7_305
*858 FILLER_0_7_317
*859 FILLER_0_7_329
*860 FILLER_0_7_335
*861 FILLER_0_7_337
*862 FILLER_0_7_349
*863 FILLER_0_7_361
*864 FILLER_0_7_373
*865 FILLER_0_7_385
*866 FILLER_0_7_39
*867 FILLER_0_7_391
*868 FILLER_0_7_393
*869 FILLER_0_7_405
*870 FILLER_0_7_417
*871 FILLER_0_7_429
*872 FILLER_0_7_441
*873 FILLER_0_7_447
*874 FILLER_0_7_449
*875 FILLER_0_7_457
*876 FILLER_0_7_51
*877 FILLER_0_7_55
*878 FILLER_0_7_57
*879 FILLER_0_7_69
*880 FILLER_0_7_81
*881 FILLER_0_7_93
*882 FILLER_0_8_109
*883 FILLER_0_8_121
*884 FILLER_0_8_133
*885 FILLER_0_8_139
*886 FILLER_0_8_141
*887 FILLER_0_8_15
*888 FILLER_0_8_153
*889 FILLER_0_8_165
*890 FILLER_0_8_177
*891 FILLER_0_8_189
*892 FILLER_0_8_195
*893 FILLER_0_8_197
*894 FILLER_0_8_209
*895 FILLER_0_8_221
*896 FILLER_0_8_233
*897 FILLER_0_8_245
*898 FILLER_0_8_251
*899 FILLER_0_8_253
*900 FILLER_0_8_265
*901 FILLER_0_8_27
*902 FILLER_0_8_277
*903 FILLER_0_8_289
*904 FILLER_0_8_29
*905 FILLER_0_8_3
*906 FILLER_0_8_301
*907 FILLER_0_8_307
*908 FILLER_0_8_309
*909 FILLER_0_8_321
*910 FILLER_0_8_333
*911 FILLER_0_8_345
*912 FILLER_0_8_357
*913 FILLER_0_8_363
*914 FILLER_0_8_365
*915 FILLER_0_8_377
*916 FILLER_0_8_389
*917 FILLER_0_8_401
*918 FILLER_0_8_41
*919 FILLER_0_8_413
*920 FILLER_0_8_419
*921 FILLER_0_8_421
*922 FILLER_0_8_433
*923 FILLER_0_8_445
*924 FILLER_0_8_457
*925 FILLER_0_8_53
*926 FILLER_0_8_65
*927 FILLER_0_8_77
*928 FILLER_0_8_83
*929 FILLER_0_8_85
*930 FILLER_0_8_97
*931 FILLER_0_9_105
*932 FILLER_0_9_111
*933 FILLER_0_9_113
*934 FILLER_0_9_125
*935 FILLER_0_9_137
*936 FILLER_0_9_149
*937 FILLER_0_9_15
*938 FILLER_0_9_161
*939 FILLER_0_9_167
*940 FILLER_0_9_169
*941 FILLER_0_9_181
*942 FILLER_0_9_193
*943 FILLER_0_9_205
*944 FILLER_0_9_217
*945 FILLER_0_9_223
*946 FILLER_0_9_225
*947 FILLER_0_9_237
*948 FILLER_0_9_249
*949 FILLER_0_9_261
*950 FILLER_0_9_27
*951 FILLER_0_9_273
*952 FILLER_0_9_279
*953 FILLER_0_9_281
*954 FILLER_0_9_293
*955 FILLER_0_9_3
*956 FILLER_0_9_305
*957 FILLER_0_9_317
*958 FILLER_0_9_329
*959 FILLER_0_9_335
*960 FILLER_0_9_337
*961 FILLER_0_9_349
*962 FILLER_0_9_361
*963 FILLER_0_9_373
*964 FILLER_0_9_385
*965 FILLER_0_9_39
*966 FILLER_0_9_391
*967 FILLER_0_9_393
*968 FILLER_0_9_405
*969 FILLER_0_9_417
*970 FILLER_0_9_429
*971 FILLER_0_9_441
*972 FILLER_0_9_447
*973 FILLER_0_9_449
*974 FILLER_0_9_457
*975 FILLER_0_9_51
*976 FILLER_0_9_55
*977 FILLER_0_9_57
*978 FILLER_0_9_69
*979 FILLER_0_9_81
*980 FILLER_0_9_93
*981 Inst_N_term_DSP_switch_matrix/_00_
*982 Inst_N_term_DSP_switch_matrix/_01_
*983 Inst_N_term_DSP_switch_matrix/_02_
*984 Inst_N_term_DSP_switch_matrix/_03_
*985 Inst_N_term_DSP_switch_matrix/_04_
*986 Inst_N_term_DSP_switch_matrix/_05_
*987 Inst_N_term_DSP_switch_matrix/_06_
*988 Inst_N_term_DSP_switch_matrix/_07_
*989 Inst_N_term_DSP_switch_matrix/_08_
*990 Inst_N_term_DSP_switch_matrix/_09_
*991 Inst_N_term_DSP_switch_matrix/_10_
*992 Inst_N_term_DSP_switch_matrix/_11_
*993 Inst_N_term_DSP_switch_matrix/_12_
*994 Inst_N_term_DSP_switch_matrix/_13_
*995 Inst_N_term_DSP_switch_matrix/_14_
*996 Inst_N_term_DSP_switch_matrix/_15_
*997 Inst_N_term_DSP_switch_matrix/_16_
*998 Inst_N_term_DSP_switch_matrix/_17_
*999 Inst_N_term_DSP_switch_matrix/_18_
*1000 Inst_N_term_DSP_switch_matrix/_19_
*1001 Inst_N_term_DSP_switch_matrix/_20_
*1002 Inst_N_term_DSP_switch_matrix/_21_
*1003 Inst_N_term_DSP_switch_matrix/_22_
*1004 Inst_N_term_DSP_switch_matrix/_23_
*1005 Inst_N_term_DSP_switch_matrix/_24_
*1006 Inst_N_term_DSP_switch_matrix/_25_
*1007 Inst_N_term_DSP_switch_matrix/_26_
*1008 Inst_N_term_DSP_switch_matrix/_27_
*1009 Inst_N_term_DSP_switch_matrix/_28_
*1010 Inst_N_term_DSP_switch_matrix/_29_
*1011 Inst_N_term_DSP_switch_matrix/_30_
*1012 Inst_N_term_DSP_switch_matrix/_31_
*1013 Inst_N_term_DSP_switch_matrix/_32_
*1014 Inst_N_term_DSP_switch_matrix/_33_
*1015 Inst_N_term_DSP_switch_matrix/_34_
*1016 Inst_N_term_DSP_switch_matrix/_35_
*1017 Inst_N_term_DSP_switch_matrix/_36_
*1018 Inst_N_term_DSP_switch_matrix/_37_
*1019 Inst_N_term_DSP_switch_matrix/_38_
*1020 Inst_N_term_DSP_switch_matrix/_39_
*1021 Inst_N_term_DSP_switch_matrix/_40_
*1022 Inst_N_term_DSP_switch_matrix/_41_
*1023 Inst_N_term_DSP_switch_matrix/_42_
*1024 Inst_N_term_DSP_switch_matrix/_43_
*1025 Inst_N_term_DSP_switch_matrix/_44_
*1026 Inst_N_term_DSP_switch_matrix/_45_
*1027 Inst_N_term_DSP_switch_matrix/_46_
*1028 Inst_N_term_DSP_switch_matrix/_47_
*1029 Inst_N_term_DSP_switch_matrix/_48_
*1030 Inst_N_term_DSP_switch_matrix/_49_
*1031 Inst_N_term_DSP_switch_matrix/_50_
*1032 Inst_N_term_DSP_switch_matrix/_51_
*1033 PHY_0
*1034 PHY_1
*1035 PHY_10
*1036 PHY_11
*1037 PHY_12
*1038 PHY_13
*1039 PHY_14
*1040 PHY_15
*1041 PHY_16
*1042 PHY_17
*1043 PHY_18
*1044 PHY_19
*1045 PHY_2
*1046 PHY_20
*1047 PHY_21
*1048 PHY_22
*1049 PHY_23
*1050 PHY_24
*1051 PHY_25
*1052 PHY_26
*1053 PHY_27
*1054 PHY_3
*1055 PHY_4
*1056 PHY_5
*1057 PHY_6
*1058 PHY_7
*1059 PHY_8
*1060 PHY_9
*1061 TAP_100
*1062 TAP_101
*1063 TAP_102
*1064 TAP_103
*1065 TAP_104
*1066 TAP_105
*1067 TAP_106
*1068 TAP_107
*1069 TAP_108
*1070 TAP_109
*1071 TAP_110
*1072 TAP_111
*1073 TAP_112
*1074 TAP_113
*1075 TAP_114
*1076 TAP_115
*1077 TAP_116
*1078 TAP_117
*1079 TAP_118
*1080 TAP_119
*1081 TAP_120
*1082 TAP_121
*1083 TAP_122
*1084 TAP_123
*1085 TAP_124
*1086 TAP_125
*1087 TAP_126
*1088 TAP_127
*1089 TAP_128
*1090 TAP_129
*1091 TAP_130
*1092 TAP_131
*1093 TAP_132
*1094 TAP_133
*1095 TAP_134
*1096 TAP_135
*1097 TAP_136
*1098 TAP_137
*1099 TAP_138
*1100 TAP_139
*1101 TAP_140
*1102 TAP_141
*1103 TAP_142
*1104 TAP_143
*1105 TAP_144
*1106 TAP_145
*1107 TAP_146
*1108 TAP_147
*1109 TAP_148
*1110 TAP_149
*1111 TAP_150
*1112 TAP_151
*1113 TAP_152
*1114 TAP_153
*1115 TAP_154
*1116 TAP_155
*1117 TAP_28
*1118 TAP_29
*1119 TAP_30
*1120 TAP_31
*1121 TAP_32
*1122 TAP_33
*1123 TAP_34
*1124 TAP_35
*1125 TAP_36
*1126 TAP_37
*1127 TAP_38
*1128 TAP_39
*1129 TAP_40
*1130 TAP_41
*1131 TAP_42
*1132 TAP_43
*1133 TAP_44
*1134 TAP_45
*1135 TAP_46
*1136 TAP_47
*1137 TAP_48
*1138 TAP_49
*1139 TAP_50
*1140 TAP_51
*1141 TAP_52
*1142 TAP_53
*1143 TAP_54
*1144 TAP_55
*1145 TAP_56
*1146 TAP_57
*1147 TAP_58
*1148 TAP_59
*1149 TAP_60
*1150 TAP_61
*1151 TAP_62
*1152 TAP_63
*1153 TAP_64
*1154 TAP_65
*1155 TAP_66
*1156 TAP_67
*1157 TAP_68
*1158 TAP_69
*1159 TAP_70
*1160 TAP_71
*1161 TAP_72
*1162 TAP_73
*1163 TAP_74
*1164 TAP_75
*1165 TAP_76
*1166 TAP_77
*1167 TAP_78
*1168 TAP_79
*1169 TAP_80
*1170 TAP_81
*1171 TAP_82
*1172 TAP_83
*1173 TAP_84
*1174 TAP_85
*1175 TAP_86
*1176 TAP_87
*1177 TAP_88
*1178 TAP_89
*1179 TAP_90
*1180 TAP_91
*1181 TAP_92
*1182 TAP_93
*1183 TAP_94
*1184 TAP_95
*1185 TAP_96
*1186 TAP_97
*1187 TAP_98
*1188 TAP_99
*1189 input1
*1190 input10
*1191 input11
*1192 input12
*1193 input13
*1194 input14
*1195 input15
*1196 input16
*1197 input17
*1198 input18
*1199 input19
*1200 input2
*1201 input20
*1202 input21
*1203 input22
*1204 input23
*1205 input24
*1206 input25
*1207 input26
*1208 input27
*1209 input28
*1210 input29
*1211 input3
*1212 input30
*1213 input31
*1214 input32
*1215 input33
*1216 input34
*1217 input35
*1218 input36
*1219 input37
*1220 input38
*1221 input39
*1222 input4
*1223 input40
*1224 input41
*1225 input42
*1226 input43
*1227 input44
*1228 input45
*1229 input46
*1230 input47
*1231 input48
*1232 input49
*1233 input5
*1234 input50
*1235 input51
*1236 input52
*1237 input53
*1238 input54
*1239 input55
*1240 input56
*1241 input57
*1242 input58
*1243 input59
*1244 input6
*1245 input60
*1246 input61
*1247 input62
*1248 input63
*1249 input64
*1250 input65
*1251 input66
*1252 input67
*1253 input68
*1254 input69
*1255 input7
*1256 input70
*1257 input71
*1258 input72
*1259 input73
*1260 input8
*1261 input9
*1262 inst_clk_buf
*1263 output100
*1264 output101
*1265 output102
*1266 output103
*1267 output104
*1268 output105
*1269 output106
*1270 output107
*1271 output108
*1272 output109
*1273 output110
*1274 output111
*1275 output112
*1276 output113
*1277 output114
*1278 output115
*1279 output116
*1280 output117
*1281 output118
*1282 output119
*1283 output120
*1284 output121
*1285 output122
*1286 output123
*1287 output124
*1288 output125
*1289 output126
*1290 output127
*1291 output128
*1292 output129
*1293 output130
*1294 output131
*1295 output132
*1296 output133
*1297 output134
*1298 output135
*1299 output136
*1300 output137
*1301 output138
*1302 output139
*1303 output140
*1304 output141
*1305 output142
*1306 output143
*1307 output144
*1308 output145
*1309 output146
*1310 output74
*1311 output75
*1312 output76
*1313 output77
*1314 output78
*1315 output79
*1316 output80
*1317 output81
*1318 output82
*1319 output83
*1320 output84
*1321 output85
*1322 output86
*1323 output87
*1324 output88
*1325 output89
*1326 output90
*1327 output91
*1328 output92
*1329 output93
*1330 output94
*1331 output95
*1332 output96
*1333 output97
*1334 output98
*1335 output99
*1336 strobe_inbuf_0/_0_
*1337 strobe_inbuf_1/_0_
*1338 strobe_inbuf_10/_0_
*1339 strobe_inbuf_11/_0_
*1340 strobe_inbuf_12/_0_
*1341 strobe_inbuf_13/_0_
*1342 strobe_inbuf_14/_0_
*1343 strobe_inbuf_15/_0_
*1344 strobe_inbuf_16/_0_
*1345 strobe_inbuf_17/_0_
*1346 strobe_inbuf_18/_0_
*1347 strobe_inbuf_19/_0_
*1348 strobe_inbuf_2/_0_
*1349 strobe_inbuf_3/_0_
*1350 strobe_inbuf_4/_0_
*1351 strobe_inbuf_5/_0_
*1352 strobe_inbuf_6/_0_
*1353 strobe_inbuf_7/_0_
*1354 strobe_inbuf_8/_0_
*1355 strobe_inbuf_9/_0_
*1356 strobe_outbuf_0/_0_
*1357 strobe_outbuf_1/_0_
*1358 strobe_outbuf_10/_0_
*1359 strobe_outbuf_11/_0_
*1360 strobe_outbuf_12/_0_
*1361 strobe_outbuf_13/_0_
*1362 strobe_outbuf_14/_0_
*1363 strobe_outbuf_15/_0_
*1364 strobe_outbuf_16/_0_
*1365 strobe_outbuf_17/_0_
*1366 strobe_outbuf_18/_0_
*1367 strobe_outbuf_19/_0_
*1368 strobe_outbuf_2/_0_
*1369 strobe_outbuf_3/_0_
*1370 strobe_outbuf_4/_0_
*1371 strobe_outbuf_5/_0_
*1372 strobe_outbuf_6/_0_
*1373 strobe_outbuf_7/_0_
*1374 strobe_outbuf_8/_0_
*1375 strobe_outbuf_9/_0_

*PORTS
FrameStrobe[0] I
FrameStrobe[10] I
FrameStrobe[11] I
FrameStrobe[12] I
FrameStrobe[13] I
FrameStrobe[14] I
FrameStrobe[15] I
FrameStrobe[16] I
FrameStrobe[17] I
FrameStrobe[18] I
FrameStrobe[19] I
FrameStrobe[1] I
FrameStrobe[2] I
FrameStrobe[3] I
FrameStrobe[4] I
FrameStrobe[5] I
FrameStrobe[6] I
FrameStrobe[7] I
FrameStrobe[8] I
FrameStrobe[9] I
FrameStrobe_O[0] O
FrameStrobe_O[10] O
FrameStrobe_O[11] O
FrameStrobe_O[12] O
FrameStrobe_O[13] O
FrameStrobe_O[14] O
FrameStrobe_O[15] O
FrameStrobe_O[16] O
FrameStrobe_O[17] O
FrameStrobe_O[18] O
FrameStrobe_O[19] O
FrameStrobe_O[1] O
FrameStrobe_O[2] O
FrameStrobe_O[3] O
FrameStrobe_O[4] O
FrameStrobe_O[5] O
FrameStrobe_O[6] O
FrameStrobe_O[7] O
FrameStrobe_O[8] O
FrameStrobe_O[9] O
N1END[0] I
N1END[1] I
N1END[2] I
N1END[3] I
N2END[0] I
N2END[1] I
N2END[2] I
N2END[3] I
N2END[4] I
N2END[5] I
N2END[6] I
N2END[7] I
N2MID[0] I
N2MID[1] I
N2MID[2] I
N2MID[3] I
N2MID[4] I
N2MID[5] I
N2MID[6] I
N2MID[7] I
N4END[0] I
N4END[10] I
N4END[11] I
N4END[12] I
N4END[13] I
N4END[14] I
N4END[15] I
N4END[1] I
N4END[2] I
N4END[3] I
N4END[4] I
N4END[5] I
N4END[6] I
N4END[7] I
N4END[8] I
N4END[9] I
NN4END[0] I
NN4END[10] I
NN4END[11] I
NN4END[12] I
NN4END[13] I
NN4END[14] I
NN4END[15] I
NN4END[1] I
NN4END[2] I
NN4END[3] I
NN4END[4] I
NN4END[5] I
NN4END[6] I
NN4END[7] I
NN4END[8] I
NN4END[9] I
S1BEG[0] O
S1BEG[1] O
S1BEG[2] O
S1BEG[3] O
S2BEG[0] O
S2BEG[1] O
S2BEG[2] O
S2BEG[3] O
S2BEG[4] O
S2BEG[5] O
S2BEG[6] O
S2BEG[7] O
S2BEGb[0] O
S2BEGb[1] O
S2BEGb[2] O
S2BEGb[3] O
S2BEGb[4] O
S2BEGb[5] O
S2BEGb[6] O
S2BEGb[7] O
S4BEG[0] O
S4BEG[10] O
S4BEG[11] O
S4BEG[12] O
S4BEG[13] O
S4BEG[14] O
S4BEG[15] O
S4BEG[1] O
S4BEG[2] O
S4BEG[3] O
S4BEG[4] O
S4BEG[5] O
S4BEG[6] O
S4BEG[7] O
S4BEG[8] O
S4BEG[9] O
SS4BEG[0] O
SS4BEG[10] O
SS4BEG[11] O
SS4BEG[12] O
SS4BEG[13] O
SS4BEG[14] O
SS4BEG[15] O
SS4BEG[1] O
SS4BEG[2] O
SS4BEG[3] O
SS4BEG[4] O
SS4BEG[5] O
SS4BEG[6] O
SS4BEG[7] O
SS4BEG[8] O
SS4BEG[9] O
UserCLK I
UserCLKo O

*D_NET *1 0.00252896
*CONN
*P FrameStrobe[0] I
*I *1189:A I *D sky130_fd_sc_hd__clkbuf_1
*CAP
1 FrameStrobe[0] 0.000591956
2 *1189:A 0.000591956
3 *1189:A SS4BEG[12] 0
4 *1189:A SS4BEG[14] 0
5 *1189:A SS4BEG[15] 0.000404888
6 *1189:A *1192:A 0.000150488
7 *1189:A *1259:A 0.000109347
8 *1189:A *1299:A 0.000231554
9 *1189:A *1362:A 0.000166485
10 *1189:A *210:24 4.88546e-05
11 *1189:A *219:42 2.95076e-06
12 *1189:A *224:26 0.000230482
*RES
1 FrameStrobe[0] *1189:A 29.2821 
*END

*D_NET *2 0.00552413
*CONN
*P FrameStrobe[10] I
*I *1200:A I *D sky130_fd_sc_hd__buf_1
*CAP
1 FrameStrobe[10] 0.00113267
2 *1200:A 0
3 *2:19 0.00113267
4 *2:19 *1193:A 1.46624e-05
5 *2:19 *1365:A 5.58875e-06
6 *2:19 *3:23 0.000997539
7 *2:19 *4:17 0
8 *2:19 *6:21 2.05612e-05
9 *2:19 *8:15 0.000167998
10 *2:19 *19:15 0.000678599
11 *2:19 *20:19 0.000194758
12 *2:19 *192:14 0.000141294
13 *2:19 *227:24 0.000374635
14 *2:19 *249:20 0.000561612
15 *2:19 *296:12 0.000101545
*RES
1 FrameStrobe[10] *2:19 43.9107 
2 *2:19 *1200:A 9.3 
*END

*D_NET *3 0.00630947
*CONN
*P FrameStrobe[11] I
*I *1211:A I *D sky130_fd_sc_hd__buf_1
*CAP
1 FrameStrobe[11] 0.00167053
2 *1211:A 0
3 *3:23 0.00167053
4 *3:23 *1191:A 3.51442e-05
5 *3:23 *1365:A 0.000125243
6 *3:23 *4:17 0
7 *3:23 *5:17 0.00078676
8 *3:23 *20:19 0.000106141
9 *3:23 *223:18 0.000159994
10 *3:23 *227:24 0.000137855
11 *3:23 *238:18 0.00030934
12 *3:23 *295:12 0.000181692
13 *3:23 *296:12 0.000128698
14 *2:19 *3:23 0.000997539
*RES
1 FrameStrobe[11] *3:23 49.2321 
2 *3:23 *1211:A 9.3 
*END

*D_NET *4 0.00613589
*CONN
*P FrameStrobe[12] I
*I *1222:A I *D sky130_fd_sc_hd__clkbuf_1
*CAP
1 FrameStrobe[12] 0.00172514
2 *1222:A 0
3 *4:17 0.00172514
4 *4:17 *1194:A 0.000238769
5 *4:17 *1342:A 0.000154762
6 *4:17 *1346:A 0.000148189
7 *4:17 *1364:A 6.48068e-05
8 *4:17 *5:17 0.000402499
9 *4:17 *6:21 0.000959915
10 *4:17 *223:18 0.00064159
11 *4:17 *238:18 0
12 *4:17 *249:20 7.50858e-05
13 *2:19 *4:17 0
14 *3:23 *4:17 0
*RES
1 FrameStrobe[12] *4:17 47.4464 
2 *4:17 *1222:A 9.3 
*END

*D_NET *5 0.00639861
*CONN
*P FrameStrobe[13] I
*I *1233:A I *D sky130_fd_sc_hd__clkbuf_1
*CAP
1 FrameStrobe[13] 0.00120616
2 *1233:A 0
3 *5:17 0.00120616
4 *5:17 *1194:A 0.000238769
5 *5:17 *1342:A 8.15939e-05
6 *5:17 *1346:A 7.2754e-05
7 *5:17 *1364:A 0.000125243
8 *5:17 *6:21 0.000770165
9 *5:17 *7:15 0.000879865
10 *5:17 *20:19 0.000161881
11 *5:17 *222:14 0.000313594
12 *5:17 *223:18 0
13 *5:17 *297:12 0.000153163
14 *3:23 *5:17 0.00078676
15 *4:17 *5:17 0.000402499
*RES