*SPEF "ieee 1481-1999"
*DESIGN "N_term_RAM_IO"
*DATE "11:11:11 Fri 11 11, 1111"
*VENDOR "OpenRCX"
*PROGRAM "Parallel Extraction"
*VERSION "1.0"
*DESIGN_FLOW "NAME_SCOPE LOCAL" "PIN_CAP NONE"
*DIVIDER /
*DELIMITER :
*BUS_DELIMITER []
*T_UNIT 1 NS
*C_UNIT 1 PF
*R_UNIT 1 OHM
*L_UNIT 1 HENRY

*NAME_MAP
*1 FrameStrobe[0]
*2 FrameStrobe[10]
*3 FrameStrobe[11]
*4 FrameStrobe[12]
*5 FrameStrobe[13]
*6 FrameStrobe[14]
*7 FrameStrobe[15]
*8 FrameStrobe[16]
*9 FrameStrobe[17]
*10 FrameStrobe[18]
*11 FrameStrobe[19]
*12 FrameStrobe[1]
*13 FrameStrobe[2]
*14 FrameStrobe[3]
*15 FrameStrobe[4]
*16 FrameStrobe[5]
*17 FrameStrobe[6]
*18 FrameStrobe[7]
*19 FrameStrobe[8]
*20 FrameStrobe[9]
*21 FrameStrobe_O[0]
*22 FrameStrobe_O[10]
*23 FrameStrobe_O[11]
*24 FrameStrobe_O[12]
*25 FrameStrobe_O[13]
*26 FrameStrobe_O[14]
*27 FrameStrobe_O[15]
*28 FrameStrobe_O[16]
*29 FrameStrobe_O[17]
*30 FrameStrobe_O[18]
*31 FrameStrobe_O[19]
*32 FrameStrobe_O[1]
*33 FrameStrobe_O[2]
*34 FrameStrobe_O[3]
*35 FrameStrobe_O[4]
*36 FrameStrobe_O[5]
*37 FrameStrobe_O[6]
*38 FrameStrobe_O[7]
*39 FrameStrobe_O[8]
*40 FrameStrobe_O[9]
*41 N1END[0]
*42 N1END[1]
*43 N1END[2]
*44 N1END[3]
*45 N2END[0]
*46 N2END[1]
*47 N2END[2]
*48 N2END[3]
*49 N2END[4]
*50 N2END[5]
*51 N2END[6]
*52 N2END[7]
*53 N2MID[0]
*54 N2MID[1]
*55 N2MID[2]
*56 N2MID[3]
*57 N2MID[4]
*58 N2MID[5]
*59 N2MID[6]
*60 N2MID[7]
*61 N4END[0]
*62 N4END[10]
*63 N4END[11]
*64 N4END[12]
*65 N4END[13]
*66 N4END[14]
*67 N4END[15]
*68 N4END[1]
*69 N4END[2]
*70 N4END[3]
*71 N4END[4]
*72 N4END[5]
*73 N4END[6]
*74 N4END[7]
*75 N4END[8]
*76 N4END[9]
*77 S1BEG[0]
*78 S1BEG[1]
*79 S1BEG[2]
*80 S1BEG[3]
*81 S2BEG[0]
*82 S2BEG[1]
*83 S2BEG[2]
*84 S2BEG[3]
*85 S2BEG[4]
*86 S2BEG[5]
*87 S2BEG[6]
*88 S2BEG[7]
*89 S2BEGb[0]
*90 S2BEGb[1]
*91 S2BEGb[2]
*92 S2BEGb[3]
*93 S2BEGb[4]
*94 S2BEGb[5]
*95 S2BEGb[6]
*96 S2BEGb[7]
*97 S4BEG[0]
*98 S4BEG[10]
*99 S4BEG[11]
*100 S4BEG[12]
*101 S4BEG[13]
*102 S4BEG[14]
*103 S4BEG[15]
*104 S4BEG[1]
*105 S4BEG[2]
*106 S4BEG[3]
*107 S4BEG[4]
*108 S4BEG[5]
*109 S4BEG[6]
*110 S4BEG[7]
*111 S4BEG[8]
*112 S4BEG[9]
*113 UserCLK
*114 UserCLKo
*117 FrameStrobe_O_i\[0\]
*118 FrameStrobe_O_i\[10\]
*119 FrameStrobe_O_i\[11\]
*120 FrameStrobe_O_i\[12\]
*121 FrameStrobe_O_i\[13\]
*122 FrameStrobe_O_i\[14\]
*123 FrameStrobe_O_i\[15\]
*124 FrameStrobe_O_i\[16\]
*125 FrameStrobe_O_i\[17\]
*126 FrameStrobe_O_i\[18\]
*127 FrameStrobe_O_i\[19\]
*128 FrameStrobe_O_i\[1\]
*129 FrameStrobe_O_i\[2\]
*130 FrameStrobe_O_i\[3\]
*131 FrameStrobe_O_i\[4\]
*132 FrameStrobe_O_i\[5\]
*133 FrameStrobe_O_i\[6\]
*134 FrameStrobe_O_i\[7\]
*135 FrameStrobe_O_i\[8\]
*136 FrameStrobe_O_i\[9\]
*137 net1
*138 net10
*139 net100
*140 net101
*141 net102
*142 net103
*143 net104
*144 net105
*145 net106
*146 net107
*147 net108
*148 net109
*149 net11
*150 net110
*151 net111
*152 net112
*153 net113
*154 net114
*155 net12
*156 net13
*157 net14
*158 net15
*159 net16
*160 net17
*161 net18
*162 net19
*163 net2
*164 net20
*165 net21
*166 net22
*167 net23
*168 net24
*169 net25
*170 net26
*171 net27
*172 net28
*173 net29
*174 net3
*175 net30
*176 net31
*177 net32
*178 net33
*179 net34
*180 net35
*181 net36
*182 net37
*183 net38
*184 net39
*185 net4
*186 net40
*187 net41
*188 net42
*189 net43
*190 net44
*191 net45
*192 net46
*193 net47
*194 net48
*195 net49
*196 net5
*197 net50
*198 net51
*199 net52
*200 net53
*201 net54
*202 net55
*203 net56
*204 net57
*205 net58
*206 net59
*207 net6
*208 net60
*209 net61
*210 net62
*211 net63
*212 net64
*213 net65
*214 net66
*215 net67
*216 net68
*217 net69
*218 net7
*219 net70
*220 net71
*221 net72
*222 net73
*223 net74
*224 net75
*225 net76
*226 net77
*227 net78
*228 net79
*229 net8
*230 net80
*231 net81
*232 net82
*233 net83
*234 net84
*235 net85
*236 net86
*237 net87
*238 net88
*239 net89
*240 net9
*241 net90
*242 net91
*243 net92
*244 net93
*245 net94
*246 net95
*247 net96
*248 net97
*249 net98
*250 net99
*251 FILLER_0_0_110
*252 FILLER_0_0_113
*253 FILLER_0_0_128
*254 FILLER_0_0_138
*255 FILLER_0_0_151
*256 FILLER_0_0_222
*257 FILLER_0_0_3
*258 FILLER_0_0_85
*259 FILLER_0_10_109
*260 FILLER_0_10_121
*261 FILLER_0_10_133
*262 FILLER_0_10_139
*263 FILLER_0_10_141
*264 FILLER_0_10_15
*265 FILLER_0_10_153
*266 FILLER_0_10_165
*267 FILLER_0_10_177
*268 FILLER_0_10_189
*269 FILLER_0_10_195
*270 FILLER_0_10_197
*271 FILLER_0_10_209
*272 FILLER_0_10_221
*273 FILLER_0_10_233
*274 FILLER_0_10_245
*275 FILLER_0_10_251
*276 FILLER_0_10_27
*277 FILLER_0_10_29
*278 FILLER_0_10_3
*279 FILLER_0_10_41
*280 FILLER_0_10_53
*281 FILLER_0_10_65
*282 FILLER_0_10_77
*283 FILLER_0_10_83
*284 FILLER_0_10_85
*285 FILLER_0_10_97
*286 FILLER_0_11_105
*287 FILLER_0_11_111
*288 FILLER_0_11_113
*289 FILLER_0_11_125
*290 FILLER_0_11_137
*291 FILLER_0_11_149
*292 FILLER_0_11_15
*293 FILLER_0_11_161
*294 FILLER_0_11_167
*295 FILLER_0_11_169
*296 FILLER_0_11_181
*297 FILLER_0_11_193
*298 FILLER_0_11_205
*299 FILLER_0_11_217
*300 FILLER_0_11_223
*301 FILLER_0_11_225
*302 FILLER_0_11_237
*303 FILLER_0_11_249
*304 FILLER_0_11_27
*305 FILLER_0_11_3
*306 FILLER_0_11_39
*307 FILLER_0_11_51
*308 FILLER_0_11_55
*309 FILLER_0_11_57
*310 FILLER_0_11_69
*311 FILLER_0_11_81
*312 FILLER_0_11_93
*313 FILLER_0_12_109
*314 FILLER_0_12_121
*315 FILLER_0_12_133
*316 FILLER_0_12_139
*317 FILLER_0_12_141
*318 FILLER_0_12_15
*319 FILLER_0_12_153
*320 FILLER_0_12_165
*321 FILLER_0_12_171
*322 FILLER_0_12_183
*323 FILLER_0_12_195
*324 FILLER_0_12_197
*325 FILLER_0_12_209
*326 FILLER_0_12_221
*327 FILLER_0_12_233
*328 FILLER_0_12_245
*329 FILLER_0_12_251
*330 FILLER_0_12_27
*331 FILLER_0_12_29
*332 FILLER_0_12_3
*333 FILLER_0_12_41
*334 FILLER_0_12_53
*335 FILLER_0_12_65
*336 FILLER_0_12_77
*337 FILLER_0_12_83
*338 FILLER_0_12_85
*339 FILLER_0_12_97
*340 FILLER_0_13_101
*341 FILLER_0_13_106
*342 FILLER_0_13_113
*343 FILLER_0_13_119
*344 FILLER_0_13_127
*345 FILLER_0_13_132
*346 FILLER_0_13_145
*347 FILLER_0_13_15
*348 FILLER_0_13_153
*349 FILLER_0_13_160
*350 FILLER_0_13_178
*351 FILLER_0_13_184
*352 FILLER_0_13_203
*353 FILLER_0_13_210
*354 FILLER_0_13_218
*355 FILLER_0_13_223
*356 FILLER_0_13_225
*357 FILLER_0_13_23
*358 FILLER_0_13_231
*359 FILLER_0_13_236
*360 FILLER_0_13_251
*361 FILLER_0_13_29
*362 FILLER_0_13_41
*363 FILLER_0_13_49
*364 FILLER_0_13_57
*365 FILLER_0_13_69
*366 FILLER_0_13_75
*367 FILLER_0_13_82
*368 FILLER_0_13_85
*369 FILLER_0_13_9
*370 FILLER_0_13_93
*371 FILLER_0_1_104
*372 FILLER_0_1_122
*373 FILLER_0_1_130
*374 FILLER_0_1_153
*375 FILLER_0_1_167
*376 FILLER_0_1_17
*377 FILLER_0_1_29
*378 FILLER_0_1_3
*379 FILLER_0_1_41
*380 FILLER_0_1_57
*381 FILLER_0_1_66
*382 FILLER_0_1_74
*383 FILLER_0_1_79
*384 FILLER_0_2_103
*385 FILLER_0_2_107
*386 FILLER_0_2_114
*387 FILLER_0_2_118
*388 FILLER_0_2_12
*389 FILLER_0_2_127
*390 FILLER_0_2_139
*391 FILLER_0_2_141
*392 FILLER_0_2_149
*393 FILLER_0_2_153
*394 FILLER_0_2_161
*395 FILLER_0_2_166
*396 FILLER_0_2_179
*397 FILLER_0_2_187
*398 FILLER_0_2_191
*399 FILLER_0_2_195
*400 FILLER_0_2_200
*401 FILLER_0_2_208
*402 FILLER_0_2_220
*403 FILLER_0_2_226
*404 FILLER_0_2_24
*405 FILLER_0_2_251
*406 FILLER_0_2_29
*407 FILLER_0_2_41
*408 FILLER_0_2_53
*409 FILLER_0_2_65
*410 FILLER_0_2_80
*411 FILLER_0_2_85
*412 FILLER_0_2_97
*413 FILLER_0_3_103
*414 FILLER_0_3_111
*415 FILLER_0_3_113
*416 FILLER_0_3_125
*417 FILLER_0_3_137
*418 FILLER_0_3_149
*419 FILLER_0_3_15
*420 FILLER_0_3_158
*421 FILLER_0_3_166
*422 FILLER_0_3_169
*423 FILLER_0_3_181
*424 FILLER_0_3_193
*425 FILLER_0_3_205
*426 FILLER_0_3_217
*427 FILLER_0_3_223
*428 FILLER_0_3_225
*429 FILLER_0_3_231
*430 FILLER_0_3_250
*431 FILLER_0_3_27
*432 FILLER_0_3_3
*433 FILLER_0_3_39
*434 FILLER_0_3_51
*435 FILLER_0_3_55
*436 FILLER_0_3_57
*437 FILLER_0_3_69
*438 FILLER_0_3_75
*439 FILLER_0_3_79
*440 FILLER_0_3_91
*441 FILLER_0_4_102
*442 FILLER_0_4_106
*443 FILLER_0_4_114
*444 FILLER_0_4_119
*445 FILLER_0_4_127
*446 FILLER_0_4_132
*447 FILLER_0_4_147
*448 FILLER_0_4_15
*449 FILLER_0_4_153
*450 FILLER_0_4_157
*451 FILLER_0_4_169
*452 FILLER_0_4_181
*453 FILLER_0_4_193
*454 FILLER_0_4_197
*455 FILLER_0_4_208
*456 FILLER_0_4_220
*457 FILLER_0_4_232
*458 FILLER_0_4_240
*459 FILLER_0_4_250
*460 FILLER_0_4_27
*461 FILLER_0_4_29
*462 FILLER_0_4_3
*463 FILLER_0_4_41
*464 FILLER_0_4_53
*465 FILLER_0_4_65
*466 FILLER_0_4_77
*467 FILLER_0_4_83
*468 FILLER_0_4_85
*469 FILLER_0_4_94
*470 FILLER_0_5_100
*471 FILLER_0_5_105
*472 FILLER_0_5_111
*473 FILLER_0_5_113
*474 FILLER_0_5_118
*475 FILLER_0_5_126
*476 FILLER_0_5_131
*477 FILLER_0_5_143
*478 FILLER_0_5_15
*479 FILLER_0_5_155
*480 FILLER_0_5_167
*481 FILLER_0_5_169
*482 FILLER_0_5_181
*483 FILLER_0_5_193
*484 FILLER_0_5_201
*485 FILLER_0_5_206
*486 FILLER_0_5_218
*487 FILLER_0_5_225
*488 FILLER_0_5_237
*489 FILLER_0_5_245
*490 FILLER_0_5_250
*491 FILLER_0_5_27
*492 FILLER_0_5_3
*493 FILLER_0_5_39
*494 FILLER_0_5_51
*495 FILLER_0_5_55
*496 FILLER_0_5_57
*497 FILLER_0_5_69
*498 FILLER_0_5_81
*499 FILLER_0_5_92
*500 FILLER_0_6_109
*501 FILLER_0_6_121
*502 FILLER_0_6_133
*503 FILLER_0_6_139
*504 FILLER_0_6_141
*505 FILLER_0_6_15
*506 FILLER_0_6_153
*507 FILLER_0_6_165
*508 FILLER_0_6_177
*509 FILLER_0_6_189
*510 FILLER_0_6_195
*511 FILLER_0_6_197
*512 FILLER_0_6_209
*513 FILLER_0_6_221
*514 FILLER_0_6_233
*515 FILLER_0_6_245
*516 FILLER_0_6_251
*517 FILLER_0_6_27
*518 FILLER_0_6_29
*519 FILLER_0_6_3
*520 FILLER_0_6_41
*521 FILLER_0_6_53
*522 FILLER_0_6_65
*523 FILLER_0_6_77
*524 FILLER_0_6_83
*525 FILLER_0_6_85
*526 FILLER_0_6_97
*527 FILLER_0_7_105
*528 FILLER_0_7_111
*529 FILLER_0_7_113
*530 FILLER_0_7_125
*531 FILLER_0_7_137
*532 FILLER_0_7_149
*533 FILLER_0_7_15
*534 FILLER_0_7_161
*535 FILLER_0_7_167
*536 FILLER_0_7_169
*537 FILLER_0_7_181
*538 FILLER_0_7_193
*539 FILLER_0_7_205
*540 FILLER_0_7_217
*541 FILLER_0_7_223
*542 FILLER_0_7_225
*543 FILLER_0_7_237
*544 FILLER_0_7_249
*545 FILLER_0_7_27
*546 FILLER_0_7_3
*547 FILLER_0_7_39
*548 FILLER_0_7_51
*549 FILLER_0_7_55
*550 FILLER_0_7_57
*551 FILLER_0_7_69
*552 FILLER_0_7_81
*553 FILLER_0_7_93
*554 FILLER_0_8_109
*555 FILLER_0_8_121
*556 FILLER_0_8_133
*557 FILLER_0_8_139
*558 FILLER_0_8_141
*559 FILLER_0_8_15
*560 FILLER_0_8_153
*561 FILLER_0_8_165
*562 FILLER_0_8_177
*563 FILLER_0_8_189
*564 FILLER_0_8_195
*565 FILLER_0_8_197
*566 FILLER_0_8_209
*567 FILLER_0_8_221
*568 FILLER_0_8_233
*569 FILLER_0_8_245
*570 FILLER_0_8_251
*571 FILLER_0_8_27
*572 FILLER_0_8_29
*573 FILLER_0_8_3
*574 FILLER_0_8_41
*575 FILLER_0_8_53
*576 FILLER_0_8_65
*577 FILLER_0_8_77
*578 FILLER_0_8_83
*579 FILLER_0_8_85
*580 FILLER_0_8_97
*581 FILLER_0_9_105
*582 FILLER_0_9_111
*583 FILLER_0_9_113
*584 FILLER_0_9_125
*585 FILLER_0_9_137
*586 FILLER_0_9_149
*587 FILLER_0_9_15
*588 FILLER_0_9_161
*589 FILLER_0_9_167
*590 FILLER_0_9_169
*591 FILLER_0_9_181
*592 FILLER_0_9_193
*593 FILLER_0_9_205
*594 FILLER_0_9_217
*595 FILLER_0_9_223
*596 FILLER_0_9_225
*597 FILLER_0_9_237
*598 FILLER_0_9_249
*599 FILLER_0_9_27
*600 FILLER_0_9_3
*601 FILLER_0_9_39
*602 FILLER_0_9_51
*603 FILLER_0_9_55
*604 FILLER_0_9_57
*605 FILLER_0_9_69
*606 FILLER_0_9_81
*607 FILLER_0_9_93
*608 Inst_N_term_RAM_IO_switch_matrix/_00_
*609 Inst_N_term_RAM_IO_switch_matrix/_01_
*610 Inst_N_term_RAM_IO_switch_matrix/_02_
*611 Inst_N_term_RAM_IO_switch_matrix/_03_
*612 Inst_N_term_RAM_IO_switch_matrix/_04_
*613 Inst_N_term_RAM_IO_switch_matrix/_05_
*614 Inst_N_term_RAM_IO_switch_matrix/_06_
*615 Inst_N_term_RAM_IO_switch_matrix/_07_
*616 Inst_N_term_RAM_IO_switch_matrix/_08_
*617 Inst_N_term_RAM_IO_switch_matrix/_09_
*618 Inst_N_term_RAM_IO_switch_matrix/_10_
*619 Inst_N_term_RAM_IO_switch_matrix/_11_
*620 Inst_N_term_RAM_IO_switch_matrix/_12_
*621 Inst_N_term_RAM_IO_switch_matrix/_13_
*622 Inst_N_term_RAM_IO_switch_matrix/_14_
*623 Inst_N_term_RAM_IO_switch_matrix/_15_
*624 Inst_N_term_RAM_IO_switch_matrix/_16_
*625 Inst_N_term_RAM_IO_switch_matrix/_17_
*626 Inst_N_term_RAM_IO_switch_matrix/_18_
*627 Inst_N_term_RAM_IO_switch_matrix/_19_
*628 Inst_N_term_RAM_IO_switch_matrix/_20_
*629 Inst_N_term_RAM_IO_switch_matrix/_21_
*630 Inst_N_term_RAM_IO_switch_matrix/_22_
*631 Inst_N_term_RAM_IO_switch_matrix/_23_
*632 Inst_N_term_RAM_IO_switch_matrix/_24_
*633 Inst_N_term_RAM_IO_switch_matrix/_25_
*634 Inst_N_term_RAM_IO_switch_matrix/_26_
*635 Inst_N_term_RAM_IO_switch_matrix/_27_
*636 Inst_N_term_RAM_IO_switch_matrix/_28_
*637 Inst_N_term_RAM_IO_switch_matrix/_29_
*638 Inst_N_term_RAM_IO_switch_matrix/_30_
*639 Inst_N_term_RAM_IO_switch_matrix/_31_
*640 Inst_N_term_RAM_IO_switch_matrix/_32_
*641 Inst_N_term_RAM_IO_switch_matrix/_33_
*642 Inst_N_term_RAM_IO_switch_matrix/_34_
*643 Inst_N_term_RAM_IO_switch_matrix/_35_
*644 PHY_0
*645 PHY_1
*646 PHY_10
*647 PHY_11
*648 PHY_12
*649 PHY_13
*650 PHY_14
*651 PHY_15
*652 PHY_16
*653 PHY_17
*654 PHY_18
*655 PHY_19
*656 PHY_2
*657 PHY_20
*658 PHY_21
*659 PHY_22
*660 PHY_23
*661 PHY_24
*662 PHY_25
*663 PHY_26
*664 PHY_27
*665 PHY_3
*666 PHY_4
*667 PHY_5
*668 PHY_6
*669 PHY_7
*670 PHY_8
*671 PHY_9
*672 TAP_28
*673 TAP_29
*674 TAP_30
*675 TAP_31
*676 TAP_32
*677 TAP_33
*678 TAP_34
*679 TAP_35
*680 TAP_36
*681 TAP_37
*682 TAP_38
*683 TAP_39
*684 TAP_40
*685 TAP_41
*686 TAP_42
*687 TAP_43
*688 TAP_44
*689 TAP_45
*690 TAP_46
*691 TAP_47
*692 TAP_48
*693 TAP_49
*694 TAP_50
*695 TAP_51
*696 TAP_52
*697 TAP_53
*698 TAP_54
*699 TAP_55
*700 TAP_56
*701 TAP_57
*702 TAP_58
*703 TAP_59
*704 TAP_60
*705 TAP_61
*706 TAP_62
*707 TAP_63
*708 TAP_64
*709 TAP_65
*710 TAP_66
*711 TAP_67
*712 TAP_68
*713 TAP_69
*714 TAP_70
*715 TAP_71
*716 TAP_72
*717 TAP_73
*718 TAP_74
*719 TAP_75
*720 TAP_76
*721 TAP_77
*722 TAP_78
*723 TAP_79
*724 TAP_80
*725 TAP_81
*726 TAP_82
*727 TAP_83
*728 TAP_84
*729 TAP_85
*730 TAP_86
*731 TAP_87
*732 TAP_88
*733 TAP_89
*734 TAP_90
*735 TAP_91
*736 input1
*737 input10
*738 input11
*739 input12
*740 input13
*741 input14
*742 input15
*743 input16
*744 input17
*745 input18
*746 input19
*747 input2
*748 input20
*749 input21
*750 input22
*751 input23
*752 input24
*753 input25
*754 input26
*755 input27
*756 input28
*757 input29
*758 input3
*759 input30
*760 input31
*761 input32
*762 input33
*763 input34
*764 input35
*765 input36
*766 input37
*767 input38
*768 input39
*769 input4
*770 input40
*771 input41
*772 input42
*773 input43
*774 input44
*775 input45
*776 input46
*777 input47
*778 input48
*779 input49
*780 input5
*781 input50
*782 input51
*783 input52
*784 input53
*785 input54
*786 input55
*787 input56
*788 input57
*789 input6
*790 input7
*791 input8
*792 input9
*793 inst_clk_buf
*794 output100
*795 output101
*796 output102
*797 output103
*798 output104
*799 output105
*800 output106
*801 output107
*802 output108
*803 output109
*804 output110
*805 output111
*806 output112
*807 output113
*808 output114
*809 output58
*810 output59
*811 output60
*812 output61
*813 output62
*814 output63
*815 output64
*816 output65
*817 output66
*818 output67
*819 output68
*820 output69
*821 output70
*822 output71
*823 output72
*824 output73
*825 output74
*826 output75
*827 output76
*828 output77
*829 output78
*830 output79
*831 output80
*832 output81
*833 output82
*834 output83
*835 output84
*836 output85
*837 output86
*838 output87
*839 output88
*840 output89
*841 output90
*842 output91
*843 output92
*844 output93
*845 output94
*846 output95
*847 output96
*848 output97
*849 output98
*850 output99
*851 strobe_inbuf_0/_0_
*852 strobe_inbuf_1/_0_
*853 strobe_inbuf_10/_0_
*854 strobe_inbuf_11/_0_
*855 strobe_inbuf_12/_0_
*856 strobe_inbuf_13/_0_
*857 strobe_inbuf_14/_0_
*858 strobe_inbuf_15/_0_
*859 strobe_inbuf_16/_0_
*860 strobe_inbuf_17/_0_
*861 strobe_inbuf_18/_0_
*862 strobe_inbuf_19/_0_
*863 strobe_inbuf_2/_0_
*864 strobe_inbuf_3/_0_
*865 strobe_inbuf_4/_0_
*866 strobe_inbuf_5/_0_
*867 strobe_inbuf_6/_0_
*868 strobe_inbuf_7/_0_
*869 strobe_inbuf_8/_0_
*870 strobe_inbuf_9/_0_
*871 strobe_outbuf_0/_0_
*872 strobe_outbuf_1/_0_
*873 strobe_outbuf_10/_0_
*874 strobe_outbuf_11/_0_
*875 strobe_outbuf_12/_0_
*876 strobe_outbuf_13/_0_
*877 strobe_outbuf_14/_0_
*878 strobe_outbuf_15/_0_
*879 strobe_outbuf_16/_0_
*880 strobe_outbuf_17/_0_
*881 strobe_outbuf_18/_0_
*882 strobe_outbuf_19/_0_
*883 strobe_outbuf_2/_0_
*884 strobe_outbuf_3/_0_
*885 strobe_outbuf_4/_0_
*886 strobe_outbuf_5/_0_
*887 strobe_outbuf_6/_0_
*888 strobe_outbuf_7/_0_
*889 strobe_outbuf_8/_0_
*890 strobe_outbuf_9/_0_

*PORTS
FrameStrobe[0] I
FrameStrobe[10] I
FrameStrobe[11] I
FrameStrobe[12] I
FrameStrobe[13] I
FrameStrobe[14] I
FrameStrobe[15] I
FrameStrobe[16] I
FrameStrobe[17] I
FrameStrobe[18] I
FrameStrobe[19] I
FrameStrobe[1] I
FrameStrobe[2] I
FrameStrobe[3] I
FrameStrobe[4] I
FrameStrobe[5] I
FrameStrobe[6] I
FrameStrobe[7] I
FrameStrobe[8] I
FrameStrobe[9] I
FrameStrobe_O[0] O
FrameStrobe_O[10] O
FrameStrobe_O[11] O
FrameStrobe_O[12] O
FrameStrobe_O[13] O
FrameStrobe_O[14] O
FrameStrobe_O[15] O
FrameStrobe_O[16] O
FrameStrobe_O[17] O
FrameStrobe_O[18] O
FrameStrobe_O[19] O
FrameStrobe_O[1] O
FrameStrobe_O[2] O
FrameStrobe_O[3] O
FrameStrobe_O[4] O
FrameStrobe_O[5] O
FrameStrobe_O[6] O
FrameStrobe_O[7] O
FrameStrobe_O[8] O
FrameStrobe_O[9] O
N1END[0] I
N1END[1] I
N1END[2] I
N1END[3] I
N2END[0] I
N2END[1] I
N2END[2] I
N2END[3] I
N2END[4] I
N2END[5] I
N2END[6] I
N2END[7] I
N2MID[0] I
N2MID[1] I
N2MID[2] I
N2MID[3] I
N2MID[4] I
N2MID[5] I
N2MID[6] I
N2MID[7] I
N4END[0] I
N4END[10] I
N4END[11] I
N4END[12] I
N4END[13] I
N4END[14] I
N4END[15] I
N4END[1] I
N4END[2] I
N4END[3] I
N4END[4] I
N4END[5] I
N4END[6] I
N4END[7] I
N4END[8] I
N4END[9] I
S1BEG[0] O
S1BEG[1] O
S1BEG[2] O
S1BEG[3] O
S2BEG[0] O
S2BEG[1] O
S2BEG[2] O
S2BEG[3] O
S2BEG[4] O
S2BEG[5] O
S2BEG[6] O
S2BEG[7] O
S2BEGb[0] O
S2BEGb[1] O
S2BEGb[2] O
S2BEGb[3] O
S2BEGb[4] O
S2BEGb[5] O
S2BEGb[6] O
S2BEGb[7] O
S4BEG[0] O
S4BEG[10] O
S4BEG[11] O
S4BEG[12] O
S4BEG[13] O
S4BEG[14] O
S4BEG[15] O
S4BEG[1] O
S4BEG[2] O
S4BEG[3] O
S4BEG[4] O
S4BEG[5] O
S4BEG[6] O
S4BEG[7] O
S4BEG[8] O
S4BEG[9] O
UserCLK I
UserCLKo O

*D_NET *1 0.0029114
*CONN
*P FrameStrobe[0] I
*I *736:A I *D sky130_fd_sc_hd__clkbuf_1
*CAP
1 FrameStrobe[0] 0.000501352
2 *736:A 0.000501352
3 *736:A *739:A 0.000185984
4 *736:A *740:A 0.000394975
5 *736:A *741:A 0.000102922
6 *736:A *742:A 0
7 *736:A *743:A 5.41794e-05
8 *736:A *744:A 7.06941e-05
9 *736:A *788:A 0.000187457
10 *736:A *851:A 0.000183304
11 *736:A *852:A 5.52302e-05
12 *736:A *158:16 0.000610077
13 *736:A *159:20 5.62934e-05
14 *736:A *194:18 7.58484e-06
*RES
1 FrameStrobe[0] *736:A 38.1393 
*END

*D_NET *2 0.00266837
*CONN
*P FrameStrobe[10] I
*I *747:A I *D sky130_fd_sc_hd__buf_1
*CAP
1 FrameStrobe[10] 0.000557316
2 *747:A 0.000557316
3 *747:A *737:A 0.000235741
4 *747:A *745:A 0
5 *747:A *746:A 0.00032519
6 *747:A *748:A 0.000190352
7 *747:A *758:A 0
8 *747:A *769:A 0
9 *747:A *791:A 0.000100979
10 *747:A *792:A 0.000224502
11 *747:A *879:A 4.31104e-05
12 *747:A *157:32 0.000302509
13 *747:A *212:14 0.000131359
*RES
1 FrameStrobe[10] *747:A 29.0857 
*END

*D_NET *3 0.00282385
*CONN
*P FrameStrobe[11] I
*I *758:A I *D sky130_fd_sc_hd__clkbuf_1
*CAP
1 FrameStrobe[11] 0.000593241
2 *758:A 0.000593241
3 *758:A *742:A 3.37355e-05
4 *758:A *744:A 0.000167626
5 *758:A *748:A 7.48254e-05
6 *758:A *769:A 0.000331136
7 *758:A *856:A 4.43898e-05
8 *758:A *857:A 5.59013e-05
9 *758:A *858:A 0.000439103
10 *758:A *862:A 8.25874e-05
11 *758:A *158:16 0.000199706
12 *758:A *160:22 0.000103267
13 *758:A *164:20 9.90431e-05
14 *758:A *174:16 6.05161e-06
15 *758:A *215:12 0
16 *747:A *758:A 0
*RES
1 FrameStrobe[11] *758:A 30.1393 
*END

*D_NET *4 0.0018354
*CONN
*P FrameStrobe[12] I
*I *769:A I *D sky130_fd_sc_hd__buf_1
*CAP
1 FrameStrobe[12] 0.000462792
2 *769:A 0.000462792
3 *769:A *744:A 0.000167626
4 *769:A *780:A 0
5 *769:A *789:A 3.1549e-05
6 *769:A *790:A 0
7 *769:A *792:A 8.77613e-05
8 *769:A *856:A 5.52238e-05
9 *769:A *859:A 5.06204e-05
10 *769:A *159:12 2.79092e-05
11 *769:A *162:24 0.000157992
12 *747:A *769:A 0
13 *758:A *769:A 0.000331136
*RES
1 FrameStrobe[12] *769:A 25.9429 
*END

*D_NET *5 0.00247938
*CONN
*P FrameStrobe[13] I
*I *780:A I *D sky130_fd_sc_hd__clkbuf_1
*CAP
1 FrameStrobe[13] 0.000559583
2 *780:A 0.000559583
3 *780:A *738:A 5.33005e-05
4 *780:A *743:A 0.000129868
5 *780:A *746:A 0.00019384
6 *780:A *789:A 0.000130276
7 *780:A *857:A 5.33005e-05
8 *780:A *859:A 0.000118702
9 *780:A *876:A 0.000128781
10 *780:A *159:12 8.00806e-05
11 *780:A *214:12 0.000325593
12 *780:A *215:12 0.000146474
13 *769:A *780:A 0
*RES
1 FrameStrobe[13] *780:A 27.6036 
*END

*D_NET *6 0.00286996
*CONN
*P FrameStrobe[14] I
*I *789:A I *D sky130_fd_sc_hd__clkbuf_1
*CAP
1 FrameStrobe[14] 0.000515001
2 *789:A 0.000515001
3 *789:A *743:A 6.39901e-05
4 *789:A *790:A 0.000382806
5 *789:A *792:A 5.33005e-05
6 *789:A *856:A 9.90367e-05
7 *789:A *861:A 0.00038917
8 *789:A *876:A 0.000495293
9 *789:A *881:A 7.18448e-05
10 *789:A *164:20 7.83659e-05
11 *789:A *185:12 4.43256e-05
12 *769:A *789:A 3.1549e-05
13 *780:A *789:A 0.000130276
*RES
1 FrameStrobe[14] *789:A 31.4429 
*END

*D_NET *7 0.00278681
*CONN
*P FrameStrobe[15] I
*I *790:A I *D sky130_fd_sc_hd__clkbuf_1
*CAP
1 FrameStrobe[15] 0.000797262
2 *790:A 0.000797262
3 *790:A *791:A 0
4 *790:A *862:A 3.93346e-05
5 *790:A *164:20 0.000770141
6 *790:A *210:14 0
7 *769:A *790:A 0
8 *789:A *790:A 0.000382806
*RES
1 FrameStrobe[15] *790:A 33.05 
*END

*D_NET *8 0.00355911
*CONN
*P FrameStrobe[16] I
*I *791:A I *D sky130_fd_sc_hd__clkbuf_1
*CAP
1 FrameStrobe[16] 0.00118712
2 *791:A 0.00118712
3 *791:A *792:A 0.000250424
4 *791:A *857:A 7.83659e-05
5 *791:A *858:A 7.79049e-05
6 *791:A *162:24 0.000294249
7 *791:A *210:14 0.000382956
8 *747:A *791:A 0.000100979
9 *790:A *791:A 0
*RES
1 FrameStrobe[16] *791:A 36.4285 
*END

*D_NET *9 0.00388876
*CONN
*P FrameStrobe[17] I
*I *792:A I *D sky130_fd_sc_hd__clkbuf_1
*CAP
1 FrameStrobe[17] 0.00102246
2 *792:A 0.00102246
3 *792:A *737:A 0.000344444
4 *792:A *746:A 9.60875e-05
5 *792:A *748:A 0.000110238
6 *792:A *858:A 5.36473e-05
7 *792:A *859:A 8.84829e-05
8 *792:A *861:A 8.43535e-06
9 *792:A *876:A 4.87953e-05
10 *792:A *880:A 1.55885e-05
11 *792:A *162:24 7.84189e-05
12 *792:A *185:12 0.000254415
13 *792:A *210:10 7.09648e-05
14 *792:A *210:14 5.83233e-05
15 *747:A *792:A 0.000224502
16 *769:A *792:A 8.77613e-05
17 *789:A *792:A 5.33005e-05
18 *791:A *792:A 0.000250424
*RES
1 FrameStrobe[17] *792:A 49.5465 
*END

*D_NET *10 0.00387291
*CONN
*P FrameStrobe[18] I
*I *737:A I *D sky130_fd_sc_hd__clkbuf_1
*CAP
1 FrameStrobe[18] 0.00119358
2 *737:A 0.00119358
3 *737:A *738:A 0.000245746
4 *737:A *745:A 0
5 *737:A *746:A 2.77258e-05
6 *737:A *748:A 2.97829e-05
7 *737:A *861:A 6.05161e-06
8 *737:A *879:A 7.90803e-05
9 *737:A *880:A 8.11174e-05
10 *737:A *160:22 0.000221634
11 *737:A *162:24 9.41642e-05
12 *737:A *210:14 0
13 *737:A *212:14 0.00012026
14 *747:A *737:A 0.000235741
15 *792:A *737:A 0.000344444
*RES
1 FrameStrobe[18] *737:A 45.6214 
*END

*D_NET *11 0.00292286
*CONN
*P FrameStrobe[19] I
*I *738:A I *D sky130_fd_sc_hd__clkbuf_1
*CAP
1 FrameStrobe[19] 0.00115489
2 *738:A 0.00115489
3 *738:A *745:A 0
4 *738:A *857:A 0.000132685
5 *738:A *859:A 0.000162167
6 *738:A *122:20 1.91716e-05
7 *738:A *210:14 0
8 *737:A *738:A 0.000245746
9 *780:A *738:A 5.33005e-05
*RES
1 FrameStrobe[19] *738:A 38.0321 
*END

*D_NET *12 0.00297004
*CONN
*P FrameStrobe[1] I
*I *739:A I *D sky130_fd_sc_hd__clkbuf_1
*CAP
1 FrameStrobe[1] 0.000596761
2 *739:A 0.000596761
3 *739:A *740:A 0.0001648
4 *739:A *741:A 0
5 *739:A *745:A 6.09572e-05
6 *739:A *788:A 0.00048453
7 *739:A *159:20 0.000852395
8 *739:A *187:26 2.78481e-05
9 *736:A *739:A 0.000185984
*RES
1 FrameStrobe[1] *739:A 38.0143 
*END

*D_NET *13 0.00283906
*CONN
*P FrameStrobe[2] I
*I *740:A I *D sky130_fd_sc_hd__clkbuf_1
*CAP
1 FrameStrobe[2] 0.000439616
2 *740:A 0.000439616
3 *740:A *741:A 0.000189529
4 *740:A *742:A 6.87574e-05
5 *740:A *743:A 0.000482601
6 *740:A *744:A 1.98839e-05
7 *740:A *745:A 3.75052e-05
8 *740:A *746:A 0.000294499
9 *740:A *158:16 0.000230694
10 *740:A *159:20 7.65804e-05
11 *736:A *740:A 0.000394975
12 *739:A *740:A 0.0001648
*RES
1 FrameStrobe[2] *740:A 38.1393 
*END

*D_NET *14 0.00262961
*CONN
*P FrameStrobe[3] I
*I *741:A I *D sky130_fd_sc_hd__buf_1
*CAP
1 FrameStrobe[3] 0.000860567
2 *741:A 0.000860567
3 *741:A *742:A 9.48026e-05
4 *741:A *744:A 0.000177915
5 *741:A *746:A 6.42095e-05
6 *741:A *788:A 0.00022729
7 *741:A *851:A 2.90923e-05
8 *741:A *852:A 2.27189e-05
9 *741:A *187:26 0
10 *741:A *194:18 0
11 *736:A *741:A 0.000102922
12 *739:A *741:A 0
13 *740:A *741:A 0.000189529
*RES
1 FrameStrobe[3] *741:A 30.3536 
*END

*D_NET *15 0.00311845
*CONN
*P FrameStrobe[4] I
*I *742:A I *D sky130_fd_sc_hd__buf_1
*CAP
1 FrameStrobe[4] 0.000444932
2 *742:A 0.000444932
3 *742:A *743:A 0.000773614
4 *742:A *746:A 9.60939e-05
5 *742:A *748:A 0.000192595
6 *742:A *158:16 0.000150625
7 *742:A *159:20 0.000818364
8 *736:A *742:A 0
9 *740:A *742:A 6.87574e-05
10 *741:A *742:A 9.48026e-05
11 *758:A *742:A 3.37355e-05
*RES
1 FrameStrobe[4] *742:A 38.1393 
*END

*D_NET *16 0.00290335
*CONN
*P FrameStrobe[5] I
*I *743:A I *D sky130_fd_sc_hd__buf_1
*CAP
1 FrameStrobe[5] 0.000557144
2 *743:A 0.000557144
3 *743:A *744:A 0
4 *743:A *876:A 1.02504e-05
5 *743:A *158:16 8.33853e-05
6 *743:A *159:12 3.37729e-05
7 *743:A *159:20 0.000157399
8 *736:A *743:A 5.41794e-05
9 *740:A *743:A 0.000482601
10 *742:A *743:A 0.000773614
11 *780:A *743:A 0.000129868
12 *789:A *743:A 6.39901e-05
*RES
1 FrameStrobe[5] *743:A 39.1214 
*END

*D_NET *17 0.00282659
*CONN
*P FrameStrobe[6] I
*I *744:A I *D sky130_fd_sc_hd__buf_1
*CAP
1 FrameStrobe[6] 0.000680127
2 *744:A 0.000680127
3 *744:A *745:A 0
4 *744:A *746:A 0.000309273
5 *744:A *852:A 5.84082e-05
6 *744:A *863:A 0.000185643
7 *744:A *879:A 0.000309266
8 *736:A *744:A 7.06941e-05
9 *740:A *744:A 1.98839e-05
10 *741:A *744:A 0.000177915
11 *743:A *744:A 0
12 *758:A *744:A 0.000167626
13 *769:A *744:A 0.000167626
*RES
1 FrameStrobe[6] *744:A 38.4071 
*END

*D_NET *18 0.00260157
*CONN
*P FrameStrobe[7] I
*I *745:A I *D sky130_fd_sc_hd__buf_1
*CAP
1 FrameStrobe[7] 0.000854452
2 *745:A 0.000854452
3 *745:A *746:A 0.000150581
4 *745:A *852:A 7.02235e-05
5 *745:A *863:A 0.000150618
6 *745:A *879:A 4.91768e-05
7 *745:A *880:A 8.20871e-05
8 *745:A *122:20 0.00017872
9 *745:A *163:14 5.52302e-05
10 *745:A *212:14 5.75687e-05
11 *745:A *213:12 0
12 *737:A *745:A 0
13 *738:A *745:A 0
14 *739:A *745:A 6.09572e-05
15 *740:A *745:A 3.75052e-05
16 *744:A *745:A 0
17 *747:A *745:A 0
*RES
1 FrameStrobe[7] *745:A 30.7286 
*END

*D_NET *19 0.0030345
*CONN
*P FrameStrobe[8] I
*I *746:A I *D sky130_fd_sc_hd__buf_1
*CAP
1 FrameStrobe[8] 0.000559207
2 *746:A 0.000559207
3 *746:A *748:A 0.000137943
4 *746:A *859:A 0.000193125
5 *746:A *879:A 2.14658e-05
6 *746:A *162:24 6.05161e-06
7 *737:A *746:A 2.77258e-05
8 *740:A *746:A 0.000294499
9 *741:A *746:A 6.42095e-05
10 *742:A *746:A 9.60939e-05
11 *744:A *746:A 0.000309273
12 *745:A *746:A 0.000150581
13 *747:A *746:A 0.00032519
14 *780:A *746:A 0.00019384
15 *792:A *746:A 9.60875e-05
*RES
1 FrameStrobe[8] *746:A 38.4071 
*END

*D_NET *20 0.00292477
*CONN
*P FrameStrobe[9] I
*I *748:A I *D sky130_fd_sc_hd__buf_1
*CAP
1 FrameStrobe[9] 0.000637837
2 *748:A 0.000637837
3 *748:A *858:A 3.34295e-05
4 *748:A *880:A 0.000149797
5 *748:A *157:32 0.000291644
6 *748:A *158:16 8.96812e-05
7 *748:A *160:22 2.26424e-05
8 *748:A *162:24 8.43535e-06
9 *748:A *164:20 9.60939e-05
10 *748:A *214:12 0.000221641
11 *737:A *748:A 2.97829e-05
12 *742:A *748:A 0.000192595
13 *746:A *748:A 0.000137943
14 *747:A *748:A 0.000190352
15 *758:A *748:A 7.48254e-05
16 *792:A *748:A 0.000110238
*RES
1 FrameStrobe[9] *748:A 38.8893 
*END

*D_NET *21 0.00075089
*CONN
*P FrameStrobe_O[0] O
*I *809:X O *D sky130_fd_sc_hd__buf_2
*CAP
1 FrameStrobe_O[0] 0.000375445
2 *809:X 0.000375445
3 FrameStrobe_O[0] UserCLKo 0
*RES
1 *809:X FrameStrobe_O[0] 20.425 
*END

*D_NET *22 0.000830716
*CONN
*P FrameStrobe_O[10] O
*I *810:X O *D sky130_fd_sc_hd__buf_2
*CAP
1 FrameStrobe_O[10] 0.000415358
2 *810:X 0.000415358
3 FrameStrobe_O[10] FrameStrobe_O[9] 0
*RES
1 *810:X FrameStrobe_O[10] 20.8357 
*END

*D_NET *23 0.000835485
*CONN
*P FrameStrobe_O[11] O
*I *811:X O *D sky130_fd_sc_hd__clkbuf_4
*CAP
1 FrameStrobe_O[11] 0.000417742
2 *811:X 0.000417742
*RES
1 *811:X FrameStrobe_O[11] 20.8357 
*END

*D_NET *24 0.000800525
*CONN
*P FrameStrobe_O[12] O
*I *812:X O *D sky130_fd_sc_hd__clkbuf_4
*CAP
1 FrameStrobe_O[12] 0.000400263
2 *812:X 0.000400263
*RES
1 *812:X FrameStrobe_O[12] 21.1393 
*END

*D_NET *25 0.000755438
*CONN
*P FrameStrobe_O[13] O
*I *813:X O *D sky130_fd_sc_hd__buf_2
*CAP
1 FrameStrobe_O[13] 0.000377719
2 *813:X 0.000377719
*RES
1 *813:X FrameStrobe_O[13] 20.425 
*END

*D_NET *26 0.0012972
*CONN
*P FrameStrobe_O[14] O
*I *814:X O *D sky130_fd_sc_hd__clkbuf_4
*CAP
1 FrameStrobe_O[14] 0.000510631
2 *814:X 0.000510631
3 FrameStrobe_O[14] *813:A 0.000275936
*RES
1 *814:X FrameStrobe_O[14] 22.7286 
*END

*D_NET *27 0.000818085
*CONN
*P FrameStrobe_O[15] O
*I *815:X O *D sky130_fd_sc_hd__buf_2
*CAP
1 FrameStrobe_O[15] 0.000358562
2 *815:X 0.000358562
3 FrameStrobe_O[15] *813:A 0.00010096
*RES
1 *815:X FrameStrobe_O[15] 20.425 
*END

*D_NET *28 0.00081865
*CONN
*P FrameStrobe_O[16] O
*I *816:X O *D sky130_fd_sc_hd__buf_2
*CAP
1 FrameStrobe_O[16] 0.000358983
2 *816:X 0.000358983
3 FrameStrobe_O[16] *813:A 0.000100684
*RES
1 *816:X FrameStrobe_O[16] 20.425 
*END

*D_NET *29 0.000818085
*CONN
*P FrameStrobe_O[17] O
*I *817:X O *D sky130_fd_sc_hd__buf_2
*CAP
1 FrameStrobe_O[17] 0.000358562
2 *817:X 0.000358562
3 FrameStrobe_O[17] *813:A 0.00010096
*RES
1 *817:X FrameStrobe_O[17] 20.425 
*END

*D_NET *30 0.000915363
*CONN
*P FrameStrobe_O[18] O
*I *818:X O *D sky130_fd_sc_hd__clkbuf_4
*CAP
1 FrameStrobe_O[18] 0.000385295
2 *818:X 0.000385295
3 FrameStrobe_O[18] *813:A 0.000144773
*RES
1 *818:X FrameStrobe_O[18] 20.8357 
*END

*D_NET *31 0.00191154
*CONN
*P FrameStrobe_O[19] O
*I *819:X O *D sky130_fd_sc_hd__clkbuf_4
*CAP
1 FrameStrobe_O[19] 0.000546574
2 *819:X 0.000546574
3 FrameStrobe_O[19] *813:A 0.000406899
4 FrameStrobe_O[19] *817:A 0.000356028
5 FrameStrobe_O[19] *210:14 5.54655e-05
*RES
1 *819:X FrameStrobe_O[19] 27.4964 
*END
