*SPEF "ieee 1481-1999"
*DESIGN "RAM_IO"
*DATE "11:11:11 Fri 11 11, 1111"
*VENDOR "OpenRCX"
*PROGRAM "Parallel Extraction"
*VERSION "1.0"
*DESIGN_FLOW "NAME_SCOPE LOCAL" "PIN_CAP NONE"
*DIVIDER /
*DELIMITER :
*BUS_DELIMITER []
*T_UNIT 1 NS
*C_UNIT 1 PF
*R_UNIT 1 OHM
*L_UNIT 1 HENRY

*NAME_MAP
*1 Config_accessC_bit0
*2 Config_accessC_bit1
*3 Config_accessC_bit2
*4 Config_accessC_bit3
*5 E1END[0]
*6 E1END[1]
*7 E1END[2]
*8 E1END[3]
*9 E2END[0]
*10 E2END[1]
*11 E2END[2]
*12 E2END[3]
*13 E2END[4]
*14 E2END[5]
*15 E2END[6]
*16 E2END[7]
*17 E2MID[0]
*18 E2MID[1]
*19 E2MID[2]
*20 E2MID[3]
*21 E2MID[4]
*22 E2MID[5]
*23 E2MID[6]
*24 E2MID[7]
*25 E6END[0]
*26 E6END[10]
*27 E6END[11]
*28 E6END[1]
*29 E6END[2]
*30 E6END[3]
*31 E6END[4]
*32 E6END[5]
*33 E6END[6]
*34 E6END[7]
*35 E6END[8]
*36 E6END[9]
*37 EE4END[0]
*38 EE4END[10]
*39 EE4END[11]
*40 EE4END[12]
*41 EE4END[13]
*42 EE4END[14]
*43 EE4END[15]
*44 EE4END[1]
*45 EE4END[2]
*46 EE4END[3]
*47 EE4END[4]
*48 EE4END[5]
*49 EE4END[6]
*50 EE4END[7]
*51 EE4END[8]
*52 EE4END[9]
*53 FAB2RAM_A0_O0
*54 FAB2RAM_A0_O1
*55 FAB2RAM_A0_O2
*56 FAB2RAM_A0_O3
*57 FAB2RAM_A1_O0
*58 FAB2RAM_A1_O1
*59 FAB2RAM_A1_O2
*60 FAB2RAM_A1_O3
*61 FAB2RAM_C_O0
*62 FAB2RAM_C_O1
*63 FAB2RAM_C_O2
*64 FAB2RAM_C_O3
*65 FAB2RAM_D0_O0
*66 FAB2RAM_D0_O1
*67 FAB2RAM_D0_O2
*68 FAB2RAM_D0_O3
*69 FAB2RAM_D1_O0
*70 FAB2RAM_D1_O1
*71 FAB2RAM_D1_O2
*72 FAB2RAM_D1_O3
*73 FAB2RAM_D2_O0
*74 FAB2RAM_D2_O1
*75 FAB2RAM_D2_O2
*76 FAB2RAM_D2_O3
*77 FAB2RAM_D3_O0
*78 FAB2RAM_D3_O1
*79 FAB2RAM_D3_O2
*80 FAB2RAM_D3_O3
*81 FrameData[0]
*82 FrameData[10]
*83 FrameData[11]
*84 FrameData[12]
*85 FrameData[13]
*86 FrameData[14]
*87 FrameData[15]
*88 FrameData[16]
*89 FrameData[17]
*90 FrameData[18]
*91 FrameData[19]
*92 FrameData[1]
*93 FrameData[20]
*94 FrameData[21]
*95 FrameData[22]
*96 FrameData[23]
*97 FrameData[24]
*98 FrameData[25]
*99 FrameData[26]
*100 FrameData[27]
*101 FrameData[28]
*102 FrameData[29]
*103 FrameData[2]
*104 FrameData[30]
*105 FrameData[31]
*106 FrameData[3]
*107 FrameData[4]
*108 FrameData[5]
*109 FrameData[6]
*110 FrameData[7]
*111 FrameData[8]
*112 FrameData[9]
*113 FrameData_O[0]
*114 FrameData_O[10]
*115 FrameData_O[11]
*116 FrameData_O[12]
*117 FrameData_O[13]
*118 FrameData_O[14]
*119 FrameData_O[15]
*120 FrameData_O[16]
*121 FrameData_O[17]
*122 FrameData_O[18]
*123 FrameData_O[19]
*124 FrameData_O[1]
*125 FrameData_O[20]
*126 FrameData_O[21]
*127 FrameData_O[22]
*128 FrameData_O[23]
*129 FrameData_O[24]
*130 FrameData_O[25]
*131 FrameData_O[26]
*132 FrameData_O[27]
*133 FrameData_O[28]
*134 FrameData_O[29]
*135 FrameData_O[2]
*136 FrameData_O[30]
*137 FrameData_O[31]
*138 FrameData_O[3]
*139 FrameData_O[4]
*140 FrameData_O[5]
*141 FrameData_O[6]
*142 FrameData_O[7]
*143 FrameData_O[8]
*144 FrameData_O[9]
*145 FrameStrobe[0]
*146 FrameStrobe[10]
*147 FrameStrobe[11]
*148 FrameStrobe[12]
*149 FrameStrobe[13]
*150 FrameStrobe[14]
*151 FrameStrobe[15]
*152 FrameStrobe[16]
*153 FrameStrobe[17]
*154 FrameStrobe[18]
*155 FrameStrobe[19]
*156 FrameStrobe[1]
*157 FrameStrobe[2]
*158 FrameStrobe[3]
*159 FrameStrobe[4]
*160 FrameStrobe[5]
*161 FrameStrobe[6]
*162 FrameStrobe[7]
*163 FrameStrobe[8]
*164 FrameStrobe[9]
*165 FrameStrobe_O[0]
*166 FrameStrobe_O[10]
*167 FrameStrobe_O[11]
*168 FrameStrobe_O[12]
*169 FrameStrobe_O[13]
*170 FrameStrobe_O[14]
*171 FrameStrobe_O[15]
*172 FrameStrobe_O[16]
*173 FrameStrobe_O[17]
*174 FrameStrobe_O[18]
*175 FrameStrobe_O[19]
*176 FrameStrobe_O[1]
*177 FrameStrobe_O[2]
*178 FrameStrobe_O[3]
*179 FrameStrobe_O[4]
*180 FrameStrobe_O[5]
*181 FrameStrobe_O[6]
*182 FrameStrobe_O[7]
*183 FrameStrobe_O[8]
*184 FrameStrobe_O[9]
*185 N1BEG[0]
*186 N1BEG[1]
*187 N1BEG[2]
*188 N1BEG[3]
*189 N1END[0]
*190 N1END[1]
*191 N1END[2]
*192 N1END[3]
*193 N2BEG[0]
*194 N2BEG[1]
*195 N2BEG[2]
*196 N2BEG[3]
*197 N2BEG[4]
*198 N2BEG[5]
*199 N2BEG[6]
*200 N2BEG[7]
*201 N2BEGb[0]
*202 N2BEGb[1]
*203 N2BEGb[2]
*204 N2BEGb[3]
*205 N2BEGb[4]
*206 N2BEGb[5]
*207 N2BEGb[6]
*208 N2BEGb[7]
*209 N2END[0]
*210 N2END[1]
*211 N2END[2]
*212 N2END[3]
*213 N2END[4]
*214 N2END[5]
*215 N2END[6]
*216 N2END[7]
*217 N2MID[0]
*218 N2MID[1]
*219 N2MID[2]
*220 N2MID[3]
*221 N2MID[4]
*222 N2MID[5]
*223 N2MID[6]
*224 N2MID[7]
*225 N4BEG[0]
*226 N4BEG[10]
*227 N4BEG[11]
*228 N4BEG[12]
*229 N4BEG[13]
*230 N4BEG[14]
*231 N4BEG[15]
*232 N4BEG[1]
*233 N4BEG[2]
*234 N4BEG[3]
*235 N4BEG[4]
*236 N4BEG[5]
*237 N4BEG[6]
*238 N4BEG[7]
*239 N4BEG[8]
*240 N4BEG[9]
*241 N4END[0]
*242 N4END[10]
*243 N4END[11]
*244 N4END[12]
*245 N4END[13]
*246 N4END[14]
*247 N4END[15]
*248 N4END[1]
*249 N4END[2]
*250 N4END[3]
*251 N4END[4]
*252 N4END[5]
*253 N4END[6]
*254 N4END[7]
*255 N4END[8]
*256 N4END[9]
*257 RAM2FAB_D0_I0
*258 RAM2FAB_D0_I1
*259 RAM2FAB_D0_I2
*260 RAM2FAB_D0_I3
*261 RAM2FAB_D1_I0
*262 RAM2FAB_D1_I1
*263 RAM2FAB_D1_I2
*264 RAM2FAB_D1_I3
*265 RAM2FAB_D2_I0
*266 RAM2FAB_D2_I1
*267 RAM2FAB_D2_I2
*268 RAM2FAB_D2_I3
*269 RAM2FAB_D3_I0
*270 RAM2FAB_D3_I1
*271 RAM2FAB_D3_I2
*272 RAM2FAB_D3_I3
*273 S1BEG[0]
*274 S1BEG[1]
*275 S1BEG[2]
*276 S1BEG[3]
*277 S1END[0]
*278 S1END[1]
*279 S1END[2]
*280 S1END[3]
*281 S2BEG[0]
*282 S2BEG[1]
*283 S2BEG[2]
*284 S2BEG[3]
*285 S2BEG[4]
*286 S2BEG[5]
*287 S2BEG[6]
*288 S2BEG[7]
*289 S2BEGb[0]
*290 S2BEGb[1]
*291 S2BEGb[2]
*292 S2BEGb[3]
*293 S2BEGb[4]
*294 S2BEGb[5]
*295 S2BEGb[6]
*296 S2BEGb[7]
*297 S2END[0]
*298 S2END[1]
*299 S2END[2]
*300 S2END[3]
*301 S2END[4]
*302 S2END[5]
*303 S2END[6]
*304 S2END[7]
*305 S2MID[0]
*306 S2MID[1]
*307 S2MID[2]
*308 S2MID[3]
*309 S2MID[4]
*310 S2MID[5]
*311 S2MID[6]
*312 S2MID[7]
*313 S4BEG[0]
*314 S4BEG[10]
*315 S4BEG[11]
*316 S4BEG[12]
*317 S4BEG[13]
*318 S4BEG[14]
*319 S4BEG[15]
*320 S4BEG[1]
*321 S4BEG[2]
*322 S4BEG[3]
*323 S4BEG[4]
*324 S4BEG[5]
*325 S4BEG[6]
*326 S4BEG[7]
*327 S4BEG[8]
*328 S4BEG[9]
*329 S4END[0]
*330 S4END[10]
*331 S4END[11]
*332 S4END[12]
*333 S4END[13]
*334 S4END[14]
*335 S4END[15]
*336 S4END[1]
*337 S4END[2]
*338 S4END[3]
*339 S4END[4]
*340 S4END[5]
*341 S4END[6]
*342 S4END[7]
*343 S4END[8]
*344 S4END[9]
*345 UserCLK
*346 UserCLKo
*349 W1BEG[0]
*350 W1BEG[1]
*351 W1BEG[2]
*352 W1BEG[3]
*353 W2BEG[0]
*354 W2BEG[1]
*355 W2BEG[2]
*356 W2BEG[3]
*357 W2BEG[4]
*358 W2BEG[5]
*359 W2BEG[6]
*360 W2BEG[7]
*361 W2BEGb[0]
*362 W2BEGb[1]
*363 W2BEGb[2]
*364 W2BEGb[3]
*365 W2BEGb[4]
*366 W2BEGb[5]
*367 W2BEGb[6]
*368 W2BEGb[7]
*369 W6BEG[0]
*370 W6BEG[10]
*371 W6BEG[11]
*372 W6BEG[1]
*373 W6BEG[2]
*374 W6BEG[3]
*375 W6BEG[4]
*376 W6BEG[5]
*377 W6BEG[6]
*378 W6BEG[7]
*379 W6BEG[8]
*380 W6BEG[9]
*381 WW4BEG[0]
*382 WW4BEG[10]
*383 WW4BEG[11]
*384 WW4BEG[12]
*385 WW4BEG[13]
*386 WW4BEG[14]
*387 WW4BEG[15]
*388 WW4BEG[1]
*389 WW4BEG[2]
*390 WW4BEG[3]
*391 WW4BEG[4]
*392 WW4BEG[5]
*393 WW4BEG[6]
*394 WW4BEG[7]
*395 WW4BEG[8]
*396 WW4BEG[9]
*397 ConfigBits\[0\]
*398 ConfigBits\[100\]
*399 ConfigBits\[101\]
*400 ConfigBits\[102\]
*401 ConfigBits\[103\]
*402 ConfigBits\[104\]
*403 ConfigBits\[105\]
*404 ConfigBits\[106\]
*405 ConfigBits\[107\]
*406 ConfigBits\[108\]
*407 ConfigBits\[109\]
*408 ConfigBits\[10\]
*409 ConfigBits\[110\]
*410 ConfigBits\[111\]
*411 ConfigBits\[112\]
*412 ConfigBits\[113\]
*413 ConfigBits\[114\]
*414 ConfigBits\[115\]
*415 ConfigBits\[116\]
*416 ConfigBits\[117\]
*417 ConfigBits\[118\]
*418 ConfigBits\[119\]
*419 ConfigBits\[11\]
*420 ConfigBits\[120\]
*421 ConfigBits\[121\]
*422 ConfigBits\[122\]
*423 ConfigBits\[123\]
*424 ConfigBits\[124\]
*425 ConfigBits\[125\]
*426 ConfigBits\[126\]
*427 ConfigBits\[127\]
*428 ConfigBits\[128\]
*429 ConfigBits\[129\]
*430 ConfigBits\[12\]
*431 ConfigBits\[130\]
*432 ConfigBits\[131\]
*433 ConfigBits\[132\]
*434 ConfigBits\[133\]
*435 ConfigBits\[134\]
*436 ConfigBits\[135\]
*437 ConfigBits\[136\]
*438 ConfigBits\[137\]
*439 ConfigBits\[138\]
*440 ConfigBits\[139\]
*441 ConfigBits\[13\]
*442 ConfigBits\[140\]
*443 ConfigBits\[141\]
*444 ConfigBits\[142\]
*445 ConfigBits\[143\]
*446 ConfigBits\[144\]
*447 ConfigBits\[145\]
*448 ConfigBits\[146\]
*449 ConfigBits\[147\]
*450 ConfigBits\[148\]
*451 ConfigBits\[149\]
*452 ConfigBits\[14\]
*453 ConfigBits\[150\]
*454 ConfigBits\[151\]
*455 ConfigBits\[152\]
*456 ConfigBits\[153\]
*457 ConfigBits\[154\]
*458 ConfigBits\[155\]
*459 ConfigBits\[156\]
*460 ConfigBits\[157\]
*461 ConfigBits\[158\]
*462 ConfigBits\[159\]
*463 ConfigBits\[15\]
*464 ConfigBits\[160\]
*465 ConfigBits\[161\]
*466 ConfigBits\[162\]
*467 ConfigBits\[163\]
*468 ConfigBits\[164\]
*469 ConfigBits\[165\]
*470 ConfigBits\[166\]
*471 ConfigBits\[167\]
*472 ConfigBits\[168\]
*473 ConfigBits\[169\]
*474 ConfigBits\[16\]
*475 ConfigBits\[170\]
*476 ConfigBits\[171\]
*477 ConfigBits\[172\]
*478 ConfigBits\[173\]
*479 ConfigBits\[174\]
*480 ConfigBits\[175\]
*481 ConfigBits\[176\]
*482 ConfigBits\[177\]
*483 ConfigBits\[178\]
*484 ConfigBits\[179\]
*485 ConfigBits\[17\]
*486 ConfigBits\[180\]
*487 ConfigBits\[181\]
*488 ConfigBits\[182\]
*489 ConfigBits\[183\]
*490 ConfigBits\[184\]
*491 ConfigBits\[185\]
*492 ConfigBits\[186\]
*493 ConfigBits\[187\]
*494 ConfigBits\[188\]
*495 ConfigBits\[189\]
*496 ConfigBits\[18\]
*497 ConfigBits\[190\]
*498 ConfigBits\[191\]
*499 ConfigBits\[192\]
*500 ConfigBits\[193\]
*501 ConfigBits\[194\]
*502 ConfigBits\[195\]
*503 ConfigBits\[196\]
*504 ConfigBits\[197\]
*505 ConfigBits\[198\]
*506 ConfigBits\[199\]
*507 ConfigBits\[19\]
*508 ConfigBits\[1\]
*509 ConfigBits\[200\]
*510 ConfigBits\[201\]
*511 ConfigBits\[202\]
*512 ConfigBits\[203\]
*513 ConfigBits\[204\]
*514 ConfigBits\[205\]
*515 ConfigBits\[206\]
*516 ConfigBits\[207\]
*517 ConfigBits\[208\]
*518 ConfigBits\[209\]
*519 ConfigBits\[20\]
*520 ConfigBits\[210\]
*521 ConfigBits\[211\]
*522 ConfigBits\[212\]
*523 ConfigBits\[213\]
*524 ConfigBits\[214\]
*525 ConfigBits\[215\]
*526 ConfigBits\[216\]
*527 ConfigBits\[217\]
*528 ConfigBits\[218\]
*529 ConfigBits\[219\]
*530 ConfigBits\[21\]
*531 ConfigBits\[220\]
*532 ConfigBits\[221\]
*533 ConfigBits\[222\]
*534 ConfigBits\[223\]
*535 ConfigBits\[224\]
*536 ConfigBits\[225\]
*537 ConfigBits\[226\]
*538 ConfigBits\[227\]
*539 ConfigBits\[228\]
*540 ConfigBits\[229\]
*541 ConfigBits\[22\]
*542 ConfigBits\[230\]
*543 ConfigBits\[231\]
*544 ConfigBits\[232\]
*545 ConfigBits\[233\]
*546 ConfigBits\[234\]
*547 ConfigBits\[235\]
*548 ConfigBits\[236\]
*549 ConfigBits\[237\]
*550 ConfigBits\[238\]
*551 ConfigBits\[239\]
*552 ConfigBits\[23\]
*553 ConfigBits\[240\]
*554 ConfigBits\[241\]
*555 ConfigBits\[242\]
*556 ConfigBits\[243\]
*557 ConfigBits\[244\]
*558 ConfigBits\[245\]
*559 ConfigBits\[246\]
*560 ConfigBits\[247\]
*561 ConfigBits\[248\]
*562 ConfigBits\[249\]
*563 ConfigBits\[24\]
*564 ConfigBits\[250\]
*565 ConfigBits\[251\]
*566 ConfigBits\[252\]
*567 ConfigBits\[253\]
*568 ConfigBits\[254\]
*569 ConfigBits\[255\]
*570 ConfigBits\[256\]
*571 ConfigBits\[257\]
*572 ConfigBits\[258\]
*573 ConfigBits\[259\]
*574 ConfigBits\[25\]
*575 ConfigBits\[260\]
*576 ConfigBits\[261\]
*577 ConfigBits\[262\]
*578 ConfigBits\[263\]
*579 ConfigBits\[264\]
*580 ConfigBits\[265\]
*581 ConfigBits\[266\]
*582 ConfigBits\[267\]
*583 ConfigBits\[268\]
*584 ConfigBits\[269\]
*585 ConfigBits\[26\]
*586 ConfigBits\[270\]
*587 ConfigBits\[271\]
*588 ConfigBits\[272\]
*589 ConfigBits\[273\]
*590 ConfigBits\[274\]
*591 ConfigBits\[275\]
*592 ConfigBits\[276\]
*593 ConfigBits\[277\]
*594 ConfigBits\[278\]
*595 ConfigBits\[279\]
*596 ConfigBits\[27\]
*597 ConfigBits\[280\]
*598 ConfigBits\[281\]
*599 ConfigBits\[282\]
*600 ConfigBits\[283\]
*601 ConfigBits\[284\]
*602 ConfigBits\[285\]
*603 ConfigBits\[286\]
*604 ConfigBits\[287\]
*605 ConfigBits\[288\]
*606 ConfigBits\[289\]
*607 ConfigBits\[28\]
*608 ConfigBits\[290\]
*609 ConfigBits\[291\]
*610 ConfigBits\[292\]
*611 ConfigBits\[293\]
*612 ConfigBits\[294\]
*613 ConfigBits\[295\]
*614 ConfigBits\[296\]
*615 ConfigBits\[297\]
*616 ConfigBits\[298\]
*617 ConfigBits\[299\]
*618 ConfigBits\[29\]
*619 ConfigBits\[2\]
*620 ConfigBits\[300\]
*621 ConfigBits\[301\]
*622 ConfigBits\[302\]
*623 ConfigBits\[303\]
*624 ConfigBits\[304\]
*625 ConfigBits\[305\]
*626 ConfigBits\[306\]
*627 ConfigBits\[307\]
*628 ConfigBits\[308\]
*629 ConfigBits\[309\]
*630 ConfigBits\[30\]
*631 ConfigBits\[310\]
*632 ConfigBits\[311\]
*633 ConfigBits\[312\]
*634 ConfigBits\[313\]
*635 ConfigBits\[314\]
*636 ConfigBits\[315\]
*637 ConfigBits\[316\]
*638 ConfigBits\[317\]
*639 ConfigBits\[318\]
*640 ConfigBits\[319\]
*641 ConfigBits\[31\]
*642 ConfigBits\[320\]
*643 ConfigBits\[321\]
*644 ConfigBits\[322\]
*645 ConfigBits\[323\]
*646 ConfigBits\[324\]
*647 ConfigBits\[325\]
*648 ConfigBits\[326\]
*649 ConfigBits\[327\]
*650 ConfigBits\[32\]
*651 ConfigBits\[33\]
*652 ConfigBits\[34\]
*653 ConfigBits\[35\]
*654 ConfigBits\[36\]
*655 ConfigBits\[37\]
*656 ConfigBits\[38\]
*657 ConfigBits\[39\]
*658 ConfigBits\[3\]
*659 ConfigBits\[40\]
*660 ConfigBits\[41\]
*661 ConfigBits\[42\]
*662 ConfigBits\[43\]
*663 ConfigBits\[44\]
*664 ConfigBits\[45\]
*665 ConfigBits\[46\]
*666 ConfigBits\[47\]
*667 ConfigBits\[48\]
*668 ConfigBits\[49\]
*669 ConfigBits\[4\]
*670 ConfigBits\[50\]
*671 ConfigBits\[51\]
*672 ConfigBits\[52\]
*673 ConfigBits\[53\]
*674 ConfigBits\[54\]
*675 ConfigBits\[55\]
*676 ConfigBits\[56\]
*677 ConfigBits\[57\]
*678 ConfigBits\[58\]
*679 ConfigBits\[59\]
*680 ConfigBits\[5\]
*681 ConfigBits\[60\]
*682 ConfigBits\[61\]
*683 ConfigBits\[62\]
*684 ConfigBits\[63\]
*685 ConfigBits\[64\]
*686 ConfigBits\[65\]
*687 ConfigBits\[66\]
*688 ConfigBits\[67\]
*689 ConfigBits\[68\]
*690 ConfigBits\[69\]
*691 ConfigBits\[6\]
*692 ConfigBits\[70\]
*693 ConfigBits\[71\]
*694 ConfigBits\[72\]
*695 ConfigBits\[73\]
*696 ConfigBits\[74\]
*697 ConfigBits\[75\]
*698 ConfigBits\[76\]
*699 ConfigBits\[77\]
*700 ConfigBits\[78\]
*701 ConfigBits\[79\]
*702 ConfigBits\[7\]
*703 ConfigBits\[80\]
*704 ConfigBits\[81\]
*705 ConfigBits\[82\]
*706 ConfigBits\[83\]
*707 ConfigBits\[84\]
*708 ConfigBits\[85\]
*709 ConfigBits\[86\]
*710 ConfigBits\[87\]
*711 ConfigBits\[88\]
*712 ConfigBits\[89\]
*713 ConfigBits\[8\]
*714 ConfigBits\[90\]
*715 ConfigBits\[91\]
*716 ConfigBits\[92\]
*717 ConfigBits\[93\]
*718 ConfigBits\[94\]
*719 ConfigBits\[95\]
*720 ConfigBits\[96\]
*721 ConfigBits\[97\]
*722 ConfigBits\[98\]
*723 ConfigBits\[99\]
*724 ConfigBits\[9\]
*725 ConfigBits_N\[0\]
*726 ConfigBits_N\[100\]
*727 ConfigBits_N\[101\]
*728 ConfigBits_N\[102\]
*729 ConfigBits_N\[103\]
*730 ConfigBits_N\[104\]
*731 ConfigBits_N\[105\]
*732 ConfigBits_N\[106\]
*733 ConfigBits_N\[107\]
*734 ConfigBits_N\[108\]
*735 ConfigBits_N\[109\]
*736 ConfigBits_N\[10\]
*737 ConfigBits_N\[110\]
*738 ConfigBits_N\[111\]
*739 ConfigBits_N\[112\]
*740 ConfigBits_N\[113\]
*741 ConfigBits_N\[114\]
*742 ConfigBits_N\[115\]
*743 ConfigBits_N\[116\]
*744 ConfigBits_N\[117\]
*745 ConfigBits_N\[118\]
*746 ConfigBits_N\[119\]
*747 ConfigBits_N\[11\]
*748 ConfigBits_N\[120\]
*749 ConfigBits_N\[121\]
*750 ConfigBits_N\[122\]
*751 ConfigBits_N\[123\]
*752 ConfigBits_N\[124\]
*753 ConfigBits_N\[125\]
*754 ConfigBits_N\[126\]
*755 ConfigBits_N\[127\]
*756 ConfigBits_N\[128\]
*757 ConfigBits_N\[129\]
*758 ConfigBits_N\[12\]
*759 ConfigBits_N\[130\]
*760 ConfigBits_N\[131\]
*761 ConfigBits_N\[132\]
*762 ConfigBits_N\[133\]
*763 ConfigBits_N\[134\]
*764 ConfigBits_N\[135\]
*765 ConfigBits_N\[136\]
*766 ConfigBits_N\[137\]
*767 ConfigBits_N\[138\]
*768 ConfigBits_N\[139\]
*769 ConfigBits_N\[13\]
*770 ConfigBits_N\[140\]
*771 ConfigBits_N\[141\]
*772 ConfigBits_N\[142\]
*773 ConfigBits_N\[143\]
*774 ConfigBits_N\[144\]
*775 ConfigBits_N\[145\]
*776 ConfigBits_N\[146\]
*777 ConfigBits_N\[147\]
*778 ConfigBits_N\[148\]
*779 ConfigBits_N\[149\]
*780 ConfigBits_N\[14\]
*781 ConfigBits_N\[150\]
*782 ConfigBits_N\[151\]
*783 ConfigBits_N\[152\]
*784 ConfigBits_N\[153\]
*785 ConfigBits_N\[154\]
*786 ConfigBits_N\[155\]
*787 ConfigBits_N\[156\]
*788 ConfigBits_N\[157\]
*789 ConfigBits_N\[158\]
*790 ConfigBits_N\[159\]
*791 ConfigBits_N\[15\]
*792 ConfigBits_N\[160\]
*793 ConfigBits_N\[161\]
*794 ConfigBits_N\[162\]
*795 ConfigBits_N\[163\]
*796 ConfigBits_N\[164\]
*797 ConfigBits_N\[165\]
*798 ConfigBits_N\[166\]
*799 ConfigBits_N\[167\]
*800 ConfigBits_N\[168\]
*801 ConfigBits_N\[169\]
*802 ConfigBits_N\[16\]
*803 ConfigBits_N\[170\]
*804 ConfigBits_N\[171\]
*805 ConfigBits_N\[172\]
*806 ConfigBits_N\[173\]
*807 ConfigBits_N\[174\]
*808 ConfigBits_N\[175\]
*809 ConfigBits_N\[176\]
*810 ConfigBits_N\[177\]
*811 ConfigBits_N\[178\]
*812 ConfigBits_N\[179\]
*813 ConfigBits_N\[17\]
*814 ConfigBits_N\[180\]
*815 ConfigBits_N\[181\]
*816 ConfigBits_N\[182\]
*817 ConfigBits_N\[183\]
*818 ConfigBits_N\[184\]
*819 ConfigBits_N\[185\]
*820 ConfigBits_N\[186\]
*821 ConfigBits_N\[187\]
*822 ConfigBits_N\[188\]
*823 ConfigBits_N\[189\]
*824 ConfigBits_N\[18\]
*825 ConfigBits_N\[190\]
*826 ConfigBits_N\[191\]
*827 ConfigBits_N\[192\]
*828 ConfigBits_N\[193\]
*829 ConfigBits_N\[194\]
*830 ConfigBits_N\[195\]
*831 ConfigBits_N\[196\]
*832 ConfigBits_N\[197\]
*833 ConfigBits_N\[198\]
*834 ConfigBits_N\[199\]
*835 ConfigBits_N\[19\]
*836 ConfigBits_N\[1\]
*837 ConfigBits_N\[200\]
*838 ConfigBits_N\[201\]
*839 ConfigBits_N\[202\]
*840 ConfigBits_N\[203\]
*841 ConfigBits_N\[204\]
*842 ConfigBits_N\[205\]
*843 ConfigBits_N\[206\]
*844 ConfigBits_N\[207\]
*845 ConfigBits_N\[208\]
*846 ConfigBits_N\[209\]
*847 ConfigBits_N\[20\]
*848 ConfigBits_N\[210\]
*849 ConfigBits_N\[211\]
*850 ConfigBits_N\[212\]
*851 ConfigBits_N\[213\]
*852 ConfigBits_N\[214\]
*853 ConfigBits_N\[215\]
*854 ConfigBits_N\[216\]
*855 ConfigBits_N\[217\]
*856 ConfigBits_N\[218\]
*857 ConfigBits_N\[219\]
*858 ConfigBits_N\[21\]
*859 ConfigBits_N\[220\]
*860 ConfigBits_N\[221\]
*861 ConfigBits_N\[222\]
*862 ConfigBits_N\[223\]
*863 ConfigBits_N\[224\]
*864 ConfigBits_N\[225\]
*865 ConfigBits_N\[226\]
*866 ConfigBits_N\[227\]
*867 ConfigBits_N\[228\]
*868 ConfigBits_N\[229\]
*869 ConfigBits_N\[22\]
*870 ConfigBits_N\[230\]
*871 ConfigBits_N\[231\]
*872 ConfigBits_N\[232\]
*873 ConfigBits_N\[233\]
*874 ConfigBits_N\[234\]
*875 ConfigBits_N\[235\]
*876 ConfigBits_N\[236\]
*877 ConfigBits_N\[237\]
*878 ConfigBits_N\[238\]
*879 ConfigBits_N\[239\]
*880 ConfigBits_N\[23\]
*881 ConfigBits_N\[240\]
*882 ConfigBits_N\[241\]
*883 ConfigBits_N\[242\]
*884 ConfigBits_N\[243\]
*885 ConfigBits_N\[244\]
*886 ConfigBits_N\[245\]
*887 ConfigBits_N\[246\]
*888 ConfigBits_N\[247\]
*889 ConfigBits_N\[248\]
*890 ConfigBits_N\[249\]
*891 ConfigBits_N\[24\]
*892 ConfigBits_N\[250\]
*893 ConfigBits_N\[251\]
*894 ConfigBits_N\[252\]
*895 ConfigBits_N\[253\]
*896 ConfigBits_N\[254\]
*897 ConfigBits_N\[255\]
*898 ConfigBits_N\[256\]
*899 ConfigBits_N\[257\]
*900 ConfigBits_N\[258\]
*901 ConfigBits_N\[259\]
*902 ConfigBits_N\[25\]
*903 ConfigBits_N\[260\]
*904 ConfigBits_N\[261\]
*905 ConfigBits_N\[262\]
*906 ConfigBits_N\[263\]
*907 ConfigBits_N\[264\]
*908 ConfigBits_N\[265\]
*909 ConfigBits_N\[266\]
*910 ConfigBits_N\[267\]
*911 ConfigBits_N\[268\]
*912 ConfigBits_N\[269\]
*913 ConfigBits_N\[26\]
*914 ConfigBits_N\[270\]
*915 ConfigBits_N\[271\]
*916 ConfigBits_N\[272\]
*917 ConfigBits_N\[273\]
*918 ConfigBits_N\[274\]
*919 ConfigBits_N\[275\]
*920 ConfigBits_N\[276\]
*921 ConfigBits_N\[277\]
*922 ConfigBits_N\[278\]
*923 ConfigBits_N\[279\]
*924 ConfigBits_N\[27\]
*925 ConfigBits_N\[280\]
*926 ConfigBits_N\[281\]
*927 ConfigBits_N\[282\]
*928 ConfigBits_N\[283\]
*929 ConfigBits_N\[284\]
*930 ConfigBits_N\[285\]
*931 ConfigBits_N\[286\]
*932 ConfigBits_N\[287\]
*933 ConfigBits_N\[288\]
*934 ConfigBits_N\[289\]
*935 ConfigBits_N\[28\]
*936 ConfigBits_N\[290\]
*937 ConfigBits_N\[291\]
*938 ConfigBits_N\[292\]
*939 ConfigBits_N\[293\]
*940 ConfigBits_N\[294\]
*941 ConfigBits_N\[295\]
*942 ConfigBits_N\[296\]
*943 ConfigBits_N\[297\]
*944 ConfigBits_N\[298\]
*945 ConfigBits_N\[299\]
*946 ConfigBits_N\[29\]
*947 ConfigBits_N\[2\]
*948 ConfigBits_N\[300\]
*949 ConfigBits_N\[301\]
*950 ConfigBits_N\[302\]
*951 ConfigBits_N\[303\]
*952 ConfigBits_N\[304\]
*953 ConfigBits_N\[305\]
*954 ConfigBits_N\[306\]
*955 ConfigBits_N\[307\]
*956 ConfigBits_N\[308\]
*957 ConfigBits_N\[309\]
*958 ConfigBits_N\[30\]
*959 ConfigBits_N\[310\]
*960 ConfigBits_N\[311\]
*961 ConfigBits_N\[312\]
*962 ConfigBits_N\[313\]
*963 ConfigBits_N\[314\]
*964 ConfigBits_N\[315\]
*965 ConfigBits_N\[316\]
*966 ConfigBits_N\[317\]
*967 ConfigBits_N\[318\]
*968 ConfigBits_N\[319\]
*969 ConfigBits_N\[31\]
*970 ConfigBits_N\[320\]
*971 ConfigBits_N\[321\]
*972 ConfigBits_N\[322\]
*973 ConfigBits_N\[323\]
*974 ConfigBits_N\[324\]
*975 ConfigBits_N\[325\]
*976 ConfigBits_N\[326\]
*977 ConfigBits_N\[327\]
*978 ConfigBits_N\[32\]
*979 ConfigBits_N\[33\]
*980 ConfigBits_N\[34\]
*981 ConfigBits_N\[35\]
*982 ConfigBits_N\[36\]
*983 ConfigBits_N\[37\]
*984 ConfigBits_N\[38\]
*985 ConfigBits_N\[39\]
*986 ConfigBits_N\[3\]
*987 ConfigBits_N\[40\]
*988 ConfigBits_N\[41\]
*989 ConfigBits_N\[42\]
*990 ConfigBits_N\[43\]
*991 ConfigBits_N\[44\]
*992 ConfigBits_N\[45\]
*993 ConfigBits_N\[46\]
*994 ConfigBits_N\[47\]
*995 ConfigBits_N\[48\]
*996 ConfigBits_N\[49\]
*997 ConfigBits_N\[4\]
*998 ConfigBits_N\[50\]
*999 ConfigBits_N\[51\]
*1000 ConfigBits_N\[52\]
*1001 ConfigBits_N\[53\]
*1002 ConfigBits_N\[54\]
*1003 ConfigBits_N\[55\]
*1004 ConfigBits_N\[56\]
*1005 ConfigBits_N\[57\]
*1006 ConfigBits_N\[58\]
*1007 ConfigBits_N\[59\]
*1008 ConfigBits_N\[5\]
*1009 ConfigBits_N\[60\]
*1010 ConfigBits_N\[61\]
*1011 ConfigBits_N\[62\]
*1012 ConfigBits_N\[63\]
*1013 ConfigBits_N\[64\]
*1014 ConfigBits_N\[65\]
*1015 ConfigBits_N\[66\]
*1016 ConfigBits_N\[67\]
*1017 ConfigBits_N\[68\]
*1018 ConfigBits_N\[69\]
*1019 ConfigBits_N\[6\]
*1020 ConfigBits_N\[70\]
*1021 ConfigBits_N\[71\]
*1022 ConfigBits_N\[72\]
*1023 ConfigBits_N\[73\]
*1024 ConfigBits_N\[74\]
*1025 ConfigBits_N\[75\]
*1026 ConfigBits_N\[76\]
*1027 ConfigBits_N\[77\]
*1028 ConfigBits_N\[78\]
*1029 ConfigBits_N\[79\]
*1030 ConfigBits_N\[7\]
*1031 ConfigBits_N\[80\]
*1032 ConfigBits_N\[81\]
*1033 ConfigBits_N\[82\]
*1034 ConfigBits_N\[83\]
*1035 ConfigBits_N\[84\]
*1036 ConfigBits_N\[85\]
*1037 ConfigBits_N\[86\]
*1038 ConfigBits_N\[87\]
*1039 ConfigBits_N\[88\]
*1040 ConfigBits_N\[89\]
*1041 ConfigBits_N\[8\]
*1042 ConfigBits_N\[90\]
*1043 ConfigBits_N\[91\]
*1044 ConfigBits_N\[92\]
*1045 ConfigBits_N\[93\]
*1046 ConfigBits_N\[94\]
*1047 ConfigBits_N\[95\]
*1048 ConfigBits_N\[96\]
*1049 ConfigBits_N\[97\]
*1050 ConfigBits_N\[98\]
*1051 ConfigBits_N\[99\]
*1052 ConfigBits_N\[9\]
*1053 FAB2RAM_A0_I0
*1054 FAB2RAM_A0_I1
*1055 FAB2RAM_A0_I2
*1056 FAB2RAM_A0_I3
*1057 FAB2RAM_A1_I0
*1058 FAB2RAM_A1_I1
*1059 FAB2RAM_A1_I2
*1060 FAB2RAM_A1_I3
*1061 FAB2RAM_C_I0
*1062 FAB2RAM_C_I1
*1063 FAB2RAM_C_I2
*1064 FAB2RAM_C_I3
*1065 FAB2RAM_D0_I0
*1066 FAB2RAM_D0_I1
*1067 FAB2RAM_D0_I2
*1068 FAB2RAM_D0_I3
*1069 FAB2RAM_D1_I0
*1070 FAB2RAM_D1_I1
*1071 FAB2RAM_D1_I2
*1072 FAB2RAM_D1_I3
*1073 FAB2RAM_D2_I0
*1074 FAB2RAM_D2_I1
*1075 FAB2RAM_D2_I2
*1076 FAB2RAM_D2_I3
*1077 FAB2RAM_D3_I0
*1078 FAB2RAM_D3_I1
*1079 FAB2RAM_D3_I2
*1080 FAB2RAM_D3_I3
*1081 FrameData_O_i\[0\]
*1082 FrameData_O_i\[10\]
*1083 FrameData_O_i\[11\]
*1084 FrameData_O_i\[12\]
*1085 FrameData_O_i\[13\]
*1086 FrameData_O_i\[14\]
*1087 FrameData_O_i\[15\]
*1088 FrameData_O_i\[16\]
*1089 FrameData_O_i\[17\]
*1090 FrameData_O_i\[18\]
*1091 FrameData_O_i\[19\]
*1092 FrameData_O_i\[1\]
*1093 FrameData_O_i\[20\]
*1094 FrameData_O_i\[21\]
*1095 FrameData_O_i\[22\]
*1096 FrameData_O_i\[23\]
*1097 FrameData_O_i\[24\]
*1098 FrameData_O_i\[25\]
*1099 FrameData_O_i\[26\]
*1100 FrameData_O_i\[27\]
*1101 FrameData_O_i\[28\]
*1102 FrameData_O_i\[29\]
*1103 FrameData_O_i\[2\]
*1104 FrameData_O_i\[30\]
*1105 FrameData_O_i\[31\]
*1106 FrameData_O_i\[3\]
*1107 FrameData_O_i\[4\]
*1108 FrameData_O_i\[5\]
*1109 FrameData_O_i\[6\]
*1110 FrameData_O_i\[7\]
*1111 FrameData_O_i\[8\]
*1112 FrameData_O_i\[9\]
*1113 FrameStrobe_O_i\[0\]
*1114 FrameStrobe_O_i\[10\]
*1115 FrameStrobe_O_i\[11\]
*1116 FrameStrobe_O_i\[12\]
*1117 FrameStrobe_O_i\[13\]
*1118 FrameStrobe_O_i\[14\]
*1119 FrameStrobe_O_i\[15\]
*1120 FrameStrobe_O_i\[16\]
*1121 FrameStrobe_O_i\[17\]
*1122 FrameStrobe_O_i\[18\]
*1123 FrameStrobe_O_i\[19\]
*1124 FrameStrobe_O_i\[1\]
*1125 FrameStrobe_O_i\[2\]
*1126 FrameStrobe_O_i\[3\]
*1127 FrameStrobe_O_i\[4\]
*1128 FrameStrobe_O_i\[5\]
*1129 FrameStrobe_O_i\[6\]
*1130 FrameStrobe_O_i\[7\]
*1131 FrameStrobe_O_i\[8\]
*1132 FrameStrobe_O_i\[9\]
*1133 Inst_FAB2RAM_A0_OutPass4_frame_config_mux/Q\[0\]
*1134 Inst_FAB2RAM_A0_OutPass4_frame_config_mux/Q\[1\]
*1135 Inst_FAB2RAM_A0_OutPass4_frame_config_mux/Q\[2\]
*1136 Inst_FAB2RAM_A0_OutPass4_frame_config_mux/Q\[3\]
*1137 Inst_FAB2RAM_A0_OutPass4_frame_config_mux/cus_mux21_inst0/AIN\[0\]
*1138 Inst_FAB2RAM_A0_OutPass4_frame_config_mux/cus_mux21_inst0/AIN\[1\]
*1139 Inst_FAB2RAM_A0_OutPass4_frame_config_mux/cus_mux21_inst0/_0_
*1140 Inst_FAB2RAM_A0_OutPass4_frame_config_mux/cus_mux21_inst0/_1_
*1141 Inst_FAB2RAM_A0_OutPass4_frame_config_mux/cus_mux21_inst1/AIN\[0\]
*1142 Inst_FAB2RAM_A0_OutPass4_frame_config_mux/cus_mux21_inst1/AIN\[1\]
*1143 Inst_FAB2RAM_A0_OutPass4_frame_config_mux/cus_mux21_inst1/_0_
*1144 Inst_FAB2RAM_A0_OutPass4_frame_config_mux/cus_mux21_inst1/_1_
*1145 Inst_FAB2RAM_A0_OutPass4_frame_config_mux/cus_mux21_inst2/AIN\[0\]
*1146 Inst_FAB2RAM_A0_OutPass4_frame_config_mux/cus_mux21_inst2/AIN\[1\]
*1147 Inst_FAB2RAM_A0_OutPass4_frame_config_mux/cus_mux21_inst2/_0_
*1148 Inst_FAB2RAM_A0_OutPass4_frame_config_mux/cus_mux21_inst2/_1_
*1149 Inst_FAB2RAM_A0_OutPass4_frame_config_mux/cus_mux21_inst3/AIN\[0\]
*1150 Inst_FAB2RAM_A0_OutPass4_frame_config_mux/cus_mux21_inst3/AIN\[1\]
*1151 Inst_FAB2RAM_A0_OutPass4_frame_config_mux/cus_mux21_inst3/_0_
*1152 Inst_FAB2RAM_A0_OutPass4_frame_config_mux/cus_mux21_inst3/_1_
*1153 Inst_FAB2RAM_A1_OutPass4_frame_config_mux/Q\[0\]
*1154 Inst_FAB2RAM_A1_OutPass4_frame_config_mux/Q\[1\]
*1155 Inst_FAB2RAM_A1_OutPass4_frame_config_mux/Q\[2\]
*1156 Inst_FAB2RAM_A1_OutPass4_frame_config_mux/Q\[3\]
*1157 Inst_FAB2RAM_A1_OutPass4_frame_config_mux/cus_mux21_inst0/AIN\[0\]
*1158 Inst_FAB2RAM_A1_OutPass4_frame_config_mux/cus_mux21_inst0/AIN\[1\]
*1159 Inst_FAB2RAM_A1_OutPass4_frame_config_mux/cus_mux21_inst0/_0_
*1160 Inst_FAB2RAM_A1_OutPass4_frame_config_mux/cus_mux21_inst0/_1_
*1161 Inst_FAB2RAM_A1_OutPass4_frame_config_mux/cus_mux21_inst1/AIN\[0\]
*1162 Inst_FAB2RAM_A1_OutPass4_frame_config_mux/cus_mux21_inst1/AIN\[1\]
*1163 Inst_FAB2RAM_A1_OutPass4_frame_config_mux/cus_mux21_inst1/_0_
*1164 Inst_FAB2RAM_A1_OutPass4_frame_config_mux/cus_mux21_inst1/_1_
*1165 Inst_FAB2RAM_A1_OutPass4_frame_config_mux/cus_mux21_inst2/AIN\[0\]
*1166 Inst_FAB2RAM_A1_OutPass4_frame_config_mux/cus_mux21_inst2/AIN\[1\]
*1167 Inst_FAB2RAM_A1_OutPass4_frame_config_mux/cus_mux21_inst2/_0_
*1168 Inst_FAB2RAM_A1_OutPass4_frame_config_mux/cus_mux21_inst2/_1_
*1169 Inst_FAB2RAM_A1_OutPass4_frame_config_mux/cus_mux21_inst3/AIN\[0\]
*1170 Inst_FAB2RAM_A1_OutPass4_frame_config_mux/cus_mux21_inst3/AIN\[1\]
*1171 Inst_FAB2RAM_A1_OutPass4_frame_config_mux/cus_mux21_inst3/_0_
*1172 Inst_FAB2RAM_A1_OutPass4_frame_config_mux/cus_mux21_inst3/_1_
*1173 Inst_FAB2RAM_C_OutPass4_frame_config_mux/Q\[0\]
*1174 Inst_FAB2RAM_C_OutPass4_frame_config_mux/Q\[1\]
*1175 Inst_FAB2RAM_C_OutPass4_frame_config_mux/Q\[2\]
*1176 Inst_FAB2RAM_C_OutPass4_frame_config_mux/Q\[3\]
*1177 Inst_FAB2RAM_C_OutPass4_frame_config_mux/cus_mux21_inst0/AIN\[0\]
*1178 Inst_FAB2RAM_C_OutPass4_frame_config_mux/cus_mux21_inst0/AIN\[1\]
*1179 Inst_FAB2RAM_C_OutPass4_frame_config_mux/cus_mux21_inst0/_0_
*1180 Inst_FAB2RAM_C_OutPass4_frame_config_mux/cus_mux21_inst0/_1_
*1181 Inst_FAB2RAM_C_OutPass4_frame_config_mux/cus_mux21_inst1/AIN\[0\]
*1182 Inst_FAB2RAM_C_OutPass4_frame_config_mux/cus_mux21_inst1/AIN\[1\]
*1183 Inst_FAB2RAM_C_OutPass4_frame_config_mux/cus_mux21_inst1/_0_
*1184 Inst_FAB2RAM_C_OutPass4_frame_config_mux/cus_mux21_inst1/_1_
*1185 Inst_FAB2RAM_C_OutPass4_frame_config_mux/cus_mux21_inst2/AIN\[0\]
*1186 Inst_FAB2RAM_C_OutPass4_frame_config_mux/cus_mux21_inst2/AIN\[1\]
*1187 Inst_FAB2RAM_C_OutPass4_frame_config_mux/cus_mux21_inst2/_0_
*1188 Inst_FAB2RAM_C_OutPass4_frame_config_mux/cus_mux21_inst2/_1_
*1189 Inst_FAB2RAM_C_OutPass4_frame_config_mux/cus_mux21_inst3/AIN\[0\]
*1190 Inst_FAB2RAM_C_OutPass4_frame_config_mux/cus_mux21_inst3/AIN\[1\]
*1191 Inst_FAB2RAM_C_OutPass4_frame_config_mux/cus_mux21_inst3/_0_
*1192 Inst_FAB2RAM_C_OutPass4_frame_config_mux/cus_mux21_inst3/_1_
*1193 Inst_FAB2RAM_D0_OutPass4_frame_config_mux/Q\[0\]
*1194 Inst_FAB2RAM_D0_OutPass4_frame_config_mux/Q\[1\]
*1195 Inst_FAB2RAM_D0_OutPass4_frame_config_mux/Q\[2\]
*1196 Inst_FAB2RAM_D0_OutPass4_frame_config_mux/Q\[3\]
*1197 Inst_FAB2RAM_D0_OutPass4_frame_config_mux/cus_mux21_inst0/AIN\[0\]
*1198 Inst_FAB2RAM_D0_OutPass4_frame_config_mux/cus_mux21_inst0/AIN\[1\]
*1199 Inst_FAB2RAM_D0_OutPass4_frame_config_mux/cus_mux21_inst0/_0_
*1200 Inst_FAB2RAM_D0_OutPass4_frame_config_mux/cus_mux21_inst0/_1_
*1201 Inst_FAB2RAM_D0_OutPass4_frame_config_mux/cus_mux21_inst1/AIN\[0\]
*1202 Inst_FAB2RAM_D0_OutPass4_frame_config_mux/cus_mux21_inst1/AIN\[1\]
*1203 Inst_FAB2RAM_D0_OutPass4_frame_config_mux/cus_mux21_inst1/_0_
*1204 Inst_FAB2RAM_D0_OutPass4_frame_config_mux/cus_mux21_inst1/_1_
*1205 Inst_FAB2RAM_D0_OutPass4_frame_config_mux/cus_mux21_inst2/AIN\[0\]
*1206 Inst_FAB2RAM_D0_OutPass4_frame_config_mux/cus_mux21_inst2/AIN\[1\]
*1207 Inst_FAB2RAM_D0_OutPass4_frame_config_mux/cus_mux21_inst2/_0_
*1208 Inst_FAB2RAM_D0_OutPass4_frame_config_mux/cus_mux21_inst2/_1_
*1209 Inst_FAB2RAM_D0_OutPass4_frame_config_mux/cus_mux21_inst3/AIN\[0\]
*1210 Inst_FAB2RAM_D0_OutPass4_frame_config_mux/cus_mux21_inst3/AIN\[1\]
*1211 Inst_FAB2RAM_D0_OutPass4_frame_config_mux/cus_mux21_inst3/_0_
*1212 Inst_FAB2RAM_D0_OutPass4_frame_config_mux/cus_mux21_inst3/_1_
*1213 Inst_FAB2RAM_D1_OutPass4_frame_config_mux/Q\[0\]
*1214 Inst_FAB2RAM_D1_OutPass4_frame_config_mux/Q\[1\]
*1215 Inst_FAB2RAM_D1_OutPass4_frame_config_mux/Q\[2\]
*1216 Inst_FAB2RAM_D1_OutPass4_frame_config_mux/Q\[3\]
*1217 Inst_FAB2RAM_D1_OutPass4_frame_config_mux/cus_mux21_inst0/AIN\[0\]
*1218 Inst_FAB2RAM_D1_OutPass4_frame_config_mux/cus_mux21_inst0/AIN\[1\]