*SPEF "ieee 1481-1999"
*DESIGN "S_term_single"
*DATE "11:11:11 Fri 11 11, 1111"
*VENDOR "OpenRCX"
*PROGRAM "Parallel Extraction"
*VERSION "1.0"
*DESIGN_FLOW "NAME_SCOPE LOCAL" "PIN_CAP NONE"
*DIVIDER /
*DELIMITER :
*BUS_DELIMITER []
*T_UNIT 1 NS
*C_UNIT 1 PF
*R_UNIT 1 OHM
*L_UNIT 1 HENRY

*NAME_MAP
*1 net147
*2 FrameStrobe[0]
*3 FrameStrobe[10]
*4 FrameStrobe[11]
*5 FrameStrobe[12]
*6 FrameStrobe[13]
*7 FrameStrobe[14]
*8 FrameStrobe[15]
*9 FrameStrobe[16]
*10 FrameStrobe[17]
*11 FrameStrobe[18]
*12 FrameStrobe[19]
*13 FrameStrobe[1]
*14 FrameStrobe[2]
*15 FrameStrobe[3]
*16 FrameStrobe[4]
*17 FrameStrobe[5]
*18 FrameStrobe[6]
*19 FrameStrobe[7]
*20 FrameStrobe[8]
*21 FrameStrobe[9]
*22 FrameStrobe_O[0]
*23 FrameStrobe_O[10]
*24 FrameStrobe_O[11]
*25 FrameStrobe_O[12]
*26 FrameStrobe_O[13]
*27 FrameStrobe_O[14]
*28 FrameStrobe_O[15]
*29 FrameStrobe_O[16]
*30 FrameStrobe_O[17]
*31 FrameStrobe_O[18]
*32 FrameStrobe_O[19]
*33 FrameStrobe_O[1]
*34 FrameStrobe_O[2]
*35 FrameStrobe_O[3]
*36 FrameStrobe_O[4]
*37 FrameStrobe_O[5]
*38 FrameStrobe_O[6]
*39 FrameStrobe_O[7]
*40 FrameStrobe_O[8]
*41 FrameStrobe_O[9]
*42 N1BEG[0]
*43 N1BEG[1]
*44 N1BEG[2]
*45 N1BEG[3]
*46 N2BEG[0]
*47 N2BEG[1]
*48 N2BEG[2]
*49 N2BEG[3]
*50 N2BEG[4]
*51 N2BEG[5]
*52 N2BEG[6]
*53 N2BEG[7]
*54 N2BEGb[0]
*55 N2BEGb[1]
*56 N2BEGb[2]
*57 N2BEGb[3]
*58 N2BEGb[4]
*59 N2BEGb[5]
*60 N2BEGb[6]
*61 N2BEGb[7]
*62 N4BEG[0]
*63 N4BEG[10]
*64 N4BEG[11]
*65 N4BEG[12]
*66 N4BEG[13]
*67 N4BEG[14]
*68 N4BEG[15]
*69 N4BEG[1]
*70 N4BEG[2]
*71 N4BEG[3]
*72 N4BEG[4]
*73 N4BEG[5]
*74 N4BEG[6]
*75 N4BEG[7]
*76 N4BEG[8]
*77 N4BEG[9]
*78 NN4BEG[0]
*79 NN4BEG[10]
*80 NN4BEG[11]
*81 NN4BEG[12]
*82 NN4BEG[13]
*83 NN4BEG[14]
*84 NN4BEG[15]
*85 NN4BEG[1]
*86 NN4BEG[2]
*87 NN4BEG[3]
*88 NN4BEG[4]
*89 NN4BEG[5]
*90 NN4BEG[6]
*91 NN4BEG[7]
*92 NN4BEG[8]
*93 NN4BEG[9]
*94 S1END[0]
*95 S1END[1]
*96 S1END[2]
*97 S1END[3]
*98 S2END[0]
*99 S2END[1]
*100 S2END[2]
*101 S2END[3]
*102 S2END[4]
*103 S2END[5]
*104 S2END[6]
*105 S2END[7]
*106 S2MID[0]
*107 S2MID[1]
*108 S2MID[2]
*109 S2MID[3]
*110 S2MID[4]
*111 S2MID[5]
*112 S2MID[6]
*113 S2MID[7]
*114 S4END[0]
*115 S4END[10]
*116 S4END[11]
*117 S4END[12]
*118 S4END[13]
*119 S4END[14]
*120 S4END[15]
*121 S4END[1]
*122 S4END[2]
*123 S4END[3]
*124 S4END[4]
*125 S4END[5]
*126 S4END[6]
*127 S4END[7]
*128 S4END[8]
*129 S4END[9]
*130 SS4END[0]
*131 SS4END[10]
*132 SS4END[11]
*133 SS4END[12]
*134 SS4END[13]
*135 SS4END[14]
*136 SS4END[15]
*137 SS4END[1]
*138 SS4END[2]
*139 SS4END[3]
*140 SS4END[4]
*141 SS4END[5]
*142 SS4END[6]
*143 SS4END[7]
*144 SS4END[8]
*145 SS4END[9]
*146 UserCLK
*147 UserCLKo
*150 net1
*151 net10
*152 net100
*153 net101
*154 net102
*155 net103
*156 net104
*157 net105
*158 net106
*159 net107
*160 net108
*161 net109
*162 net11
*163 net110
*164 net111
*165 net112
*166 net113
*167 net114
*168 net115
*169 net116
*170 net117
*171 net118
*172 net119
*173 net12
*174 net120
*175 net121
*176 net122
*177 net123
*178 net124
*179 net125
*180 net126
*181 net127
*182 net128
*183 net129
*184 net13
*185 net130
*186 net131
*187 net132
*188 net133
*189 net134
*190 net135
*191 net136
*192 net137
*193 net138
*194 net139
*195 net14
*196 net140
*197 net141
*198 net142
*199 net143
*200 net144
*201 net145
*202 net146
*203 net15
*204 net16
*205 net17
*206 net18
*207 net19
*208 net2
*209 net20
*210 net21
*211 net22
*212 net23
*213 net24
*214 net25
*215 net26
*216 net27
*217 net28
*218 net29
*219 net3
*220 net30
*221 net31
*222 net32
*223 net33
*224 net34
*225 net35
*226 net36
*227 net37
*228 net38
*229 net39
*230 net4
*231 net40
*232 net41
*233 net42
*234 net43
*235 net44
*236 net45
*237 net46
*238 net47
*239 net48
*240 net49
*241 net5
*242 net50
*243 net51
*244 net52
*245 net53
*246 net54
*247 net55
*248 net56
*249 net57
*250 net58
*251 net59
*252 net6
*253 net60
*254 net61
*255 net62
*256 net63
*257 net64
*258 net65
*259 net66
*260 net67
*261 net68
*262 net69
*263 net7
*264 net70
*265 net71
*266 net72
*267 net73
*268 net74
*269 net75
*270 net76
*271 net77
*272 net78
*273 net79
*274 net8
*275 net80
*276 net81
*277 net82
*278 net83
*279 net84
*280 net85
*281 net86
*282 net87
*283 net88
*284 net89
*285 net9
*286 net90
*287 net91
*288 net92
*289 net93
*290 net94
*291 net95
*292 net96
*293 net97
*294 net98
*295 net99
*296 ANTENNA_1
*297 ANTENNA_2
*298 ANTENNA_3
*299 FILLER_0_0_108
*300 FILLER_0_0_113
*301 FILLER_0_0_119
*302 FILLER_0_0_124
*303 FILLER_0_0_13
*304 FILLER_0_0_136
*305 FILLER_0_0_144
*306 FILLER_0_0_149
*307 FILLER_0_0_161
*308 FILLER_0_0_165
*309 FILLER_0_0_169
*310 FILLER_0_0_181
*311 FILLER_0_0_188
*312 FILLER_0_0_197
*313 FILLER_0_0_205
*314 FILLER_0_0_211
*315 FILLER_0_0_223
*316 FILLER_0_0_225
*317 FILLER_0_0_234
*318 FILLER_0_0_246
*319 FILLER_0_0_25
*320 FILLER_0_0_253
*321 FILLER_0_0_257
*322 FILLER_0_0_269
*323 FILLER_0_0_281
*324 FILLER_0_0_293
*325 FILLER_0_0_299
*326 FILLER_0_0_303
*327 FILLER_0_0_307
*328 FILLER_0_0_309
*329 FILLER_0_0_321
*330 FILLER_0_0_326
*331 FILLER_0_0_334
*332 FILLER_0_0_337
*333 FILLER_0_0_345
*334 FILLER_0_0_354
*335 FILLER_0_0_358
*336 FILLER_0_0_363
*337 FILLER_0_0_368
*338 FILLER_0_0_372
*339 FILLER_0_0_377
*340 FILLER_0_0_389
*341 FILLER_0_0_39
*342 FILLER_0_0_402
*343 FILLER_0_0_410
*344 FILLER_0_0_418
*345 FILLER_0_0_421
*346 FILLER_0_0_427
*347 FILLER_0_0_435
*348 FILLER_0_0_441
*349 FILLER_0_0_447
*350 FILLER_0_0_452
*351 FILLER_0_0_50
*352 FILLER_0_0_57
*353 FILLER_0_0_69
*354 FILLER_0_0_73
*355 FILLER_0_0_81
*356 FILLER_0_0_85
*357 FILLER_0_0_96
*358 FILLER_0_1_105
*359 FILLER_0_1_111
*360 FILLER_0_1_113
*361 FILLER_0_1_125
*362 FILLER_0_1_137
*363 FILLER_0_1_149
*364 FILLER_0_1_15
*365 FILLER_0_1_161
*366 FILLER_0_1_167
*367 FILLER_0_1_172
*368 FILLER_0_1_184
*369 FILLER_0_1_193
*370 FILLER_0_1_205
*371 FILLER_0_1_216
*372 FILLER_0_1_225
*373 FILLER_0_1_233
*374 FILLER_0_1_237
*375 FILLER_0_1_249
*376 FILLER_0_1_257
*377 FILLER_0_1_262
*378 FILLER_0_1_27
*379 FILLER_0_1_274
*380 FILLER_0_1_281
*381 FILLER_0_1_293
*382 FILLER_0_1_3
*383 FILLER_0_1_305
*384 FILLER_0_1_317
*385 FILLER_0_1_329
*386 FILLER_0_1_335
*387 FILLER_0_1_337
*388 FILLER_0_1_349
*389 FILLER_0_1_353
*390 FILLER_0_1_365
*391 FILLER_0_1_377
*392 FILLER_0_1_389
*393 FILLER_0_1_39
*394 FILLER_0_1_393
*395 FILLER_0_1_402
*396 FILLER_0_1_414
*397 FILLER_0_1_426
*398 FILLER_0_1_438
*399 FILLER_0_1_446
*400 FILLER_0_1_449
*401 FILLER_0_1_457
*402 FILLER_0_1_51
*403 FILLER_0_1_55
*404 FILLER_0_1_57
*405 FILLER_0_1_69
*406 FILLER_0_1_81
*407 FILLER_0_1_93
*408 FILLER_0_2_109
*409 FILLER_0_2_121
*410 FILLER_0_2_133
*411 FILLER_0_2_139
*412 FILLER_0_2_141
*413 FILLER_0_2_15
*414 FILLER_0_2_153
*415 FILLER_0_2_165
*416 FILLER_0_2_177
*417 FILLER_0_2_189
*418 FILLER_0_2_195
*419 FILLER_0_2_197
*420 FILLER_0_2_209
*421 FILLER_0_2_221
*422 FILLER_0_2_233
*423 FILLER_0_2_245
*424 FILLER_0_2_251
*425 FILLER_0_2_253
*426 FILLER_0_2_265
*427 FILLER_0_2_27
*428 FILLER_0_2_277
*429 FILLER_0_2_289
*430 FILLER_0_2_29
*431 FILLER_0_2_3
*432 FILLER_0_2_301
*433 FILLER_0_2_307
*434 FILLER_0_2_309
*435 FILLER_0_2_321
*436 FILLER_0_2_333
*437 FILLER_0_2_345
*438 FILLER_0_2_360
*439 FILLER_0_2_365
*440 FILLER_0_2_377
*441 FILLER_0_2_389
*442 FILLER_0_2_401
*443 FILLER_0_2_41
*444 FILLER_0_2_413
*445 FILLER_0_2_419
*446 FILLER_0_2_421
*447 FILLER_0_2_433
*448 FILLER_0_2_445
*449 FILLER_0_2_457
*450 FILLER_0_2_53
*451 FILLER_0_2_65
*452 FILLER_0_2_77
*453 FILLER_0_2_83
*454 FILLER_0_2_85
*455 FILLER_0_2_97
*456 FILLER_0_3_105
*457 FILLER_0_3_111
*458 FILLER_0_3_113
*459 FILLER_0_3_125
*460 FILLER_0_3_137
*461 FILLER_0_3_149
*462 FILLER_0_3_15
*463 FILLER_0_3_161
*464 FILLER_0_3_167
*465 FILLER_0_3_169
*466 FILLER_0_3_181
*467 FILLER_0_3_193
*468 FILLER_0_3_205
*469 FILLER_0_3_217
*470 FILLER_0_3_223
*471 FILLER_0_3_225
*472 FILLER_0_3_237
*473 FILLER_0_3_249
*474 FILLER_0_3_261
*475 FILLER_0_3_27
*476 FILLER_0_3_273
*477 FILLER_0_3_279
*478 FILLER_0_3_281
*479 FILLER_0_3_293
*480 FILLER_0_3_3
*481 FILLER_0_3_305
*482 FILLER_0_3_317
*483 FILLER_0_3_329
*484 FILLER_0_3_335
*485 FILLER_0_3_337
*486 FILLER_0_3_349
*487 FILLER_0_3_361
*488 FILLER_0_3_373
*489 FILLER_0_3_385
*490 FILLER_0_3_39
*491 FILLER_0_3_391
*492 FILLER_0_3_393
*493 FILLER_0_3_405
*494 FILLER_0_3_417
*495 FILLER_0_3_429
*496 FILLER_0_3_441
*497 FILLER_0_3_447
*498 FILLER_0_3_449
*499 FILLER_0_3_457
*500 FILLER_0_3_51
*501 FILLER_0_3_55
*502 FILLER_0_3_57
*503 FILLER_0_3_69
*504 FILLER_0_3_81
*505 FILLER_0_3_93
*506 FILLER_0_4_109
*507 FILLER_0_4_121
*508 FILLER_0_4_133
*509 FILLER_0_4_139
*510 FILLER_0_4_141
*511 FILLER_0_4_15
*512 FILLER_0_4_153
*513 FILLER_0_4_165
*514 FILLER_0_4_177
*515 FILLER_0_4_189
*516 FILLER_0_4_195
*517 FILLER_0_4_197
*518 FILLER_0_4_209
*519 FILLER_0_4_221
*520 FILLER_0_4_233
*521 FILLER_0_4_245
*522 FILLER_0_4_251
*523 FILLER_0_4_253
*524 FILLER_0_4_265
*525 FILLER_0_4_27
*526 FILLER_0_4_277
*527 FILLER_0_4_289
*528 FILLER_0_4_29
*529 FILLER_0_4_3
*530 FILLER_0_4_301
*531 FILLER_0_4_307
*532 FILLER_0_4_309
*533 FILLER_0_4_321
*534 FILLER_0_4_333
*535 FILLER_0_4_345
*536 FILLER_0_4_357
*537 FILLER_0_4_363
*538 FILLER_0_4_365
*539 FILLER_0_4_377
*540 FILLER_0_4_389
*541 FILLER_0_4_401
*542 FILLER_0_4_41
*543 FILLER_0_4_413
*544 FILLER_0_4_419
*545 FILLER_0_4_421
*546 FILLER_0_4_433
*547 FILLER_0_4_445
*548 FILLER_0_4_457
*549 FILLER_0_4_53
*550 FILLER_0_4_65
*551 FILLER_0_4_77
*552 FILLER_0_4_83
*553 FILLER_0_4_85
*554 FILLER_0_4_97
*555 FILLER_0_5_105
*556 FILLER_0_5_111
*557 FILLER_0_5_113
*558 FILLER_0_5_125
*559 FILLER_0_5_137
*560 FILLER_0_5_149
*561 FILLER_0_5_15
*562 FILLER_0_5_161
*563 FILLER_0_5_167
*564 FILLER_0_5_169
*565 FILLER_0_5_181
*566 FILLER_0_5_193
*567 FILLER_0_5_205
*568 FILLER_0_5_217
*569 FILLER_0_5_223
*570 FILLER_0_5_225
*571 FILLER_0_5_237
*572 FILLER_0_5_249
*573 FILLER_0_5_261
*574 FILLER_0_5_27
*575 FILLER_0_5_273
*576 FILLER_0_5_279
*577 FILLER_0_5_281
*578 FILLER_0_5_293
*579 FILLER_0_5_3
*580 FILLER_0_5_305
*581 FILLER_0_5_317
*582 FILLER_0_5_329
*583 FILLER_0_5_335
*584 FILLER_0_5_337
*585 FILLER_0_5_349
*586 FILLER_0_5_361
*587 FILLER_0_5_373
*588 FILLER_0_5_385
*589 FILLER_0_5_39
*590 FILLER_0_5_391
*591 FILLER_0_5_393
*592 FILLER_0_5_405
*593 FILLER_0_5_417
*594 FILLER_0_5_429
*595 FILLER_0_5_441
*596 FILLER_0_5_447
*597 FILLER_0_5_449
*598 FILLER_0_5_457
*599 FILLER_0_5_51
*600 FILLER_0_5_55
*601 FILLER_0_5_57
*602 FILLER_0_5_69
*603 FILLER_0_5_81
*604 FILLER_0_5_93
*605 FILLER_0_6_110
*606 FILLER_0_6_122
*607 FILLER_0_6_134
*608 FILLER_0_6_141
*609 FILLER_0_6_15
*610 FILLER_0_6_153
*611 FILLER_0_6_165
*612 FILLER_0_6_177
*613 FILLER_0_6_189
*614 FILLER_0_6_195
*615 FILLER_0_6_197
*616 FILLER_0_6_209
*617 FILLER_0_6_221
*618 FILLER_0_6_233
*619 FILLER_0_6_245
*620 FILLER_0_6_251
*621 FILLER_0_6_253
*622 FILLER_0_6_265
*623 FILLER_0_6_27
*624 FILLER_0_6_277
*625 FILLER_0_6_289
*626 FILLER_0_6_29
*627 FILLER_0_6_3
*628 FILLER_0_6_301
*629 FILLER_0_6_307
*630 FILLER_0_6_309
*631 FILLER_0_6_321
*632 FILLER_0_6_333
*633 FILLER_0_6_345
*634 FILLER_0_6_357
*635 FILLER_0_6_363
*636 FILLER_0_6_365
*637 FILLER_0_6_377
*638 FILLER_0_6_389
*639 FILLER_0_6_401
*640 FILLER_0_6_41
*641 FILLER_0_6_413
*642 FILLER_0_6_419
*643 FILLER_0_6_421
*644 FILLER_0_6_433
*645 FILLER_0_6_445
*646 FILLER_0_6_457
*647 FILLER_0_6_53
*648 FILLER_0_6_65
*649 FILLER_0_6_77
*650 FILLER_0_6_83
*651 FILLER_0_6_85
*652 FILLER_0_6_91
*653 FILLER_0_6_98
*654 FILLER_0_7_107
*655 FILLER_0_7_111
*656 FILLER_0_7_113
*657 FILLER_0_7_121
*658 FILLER_0_7_131
*659 FILLER_0_7_139
*660 FILLER_0_7_146
*661 FILLER_0_7_15
*662 FILLER_0_7_154
*663 FILLER_0_7_159
*664 FILLER_0_7_164
*665 FILLER_0_7_169
*666 FILLER_0_7_177
*667 FILLER_0_7_182
*668 FILLER_0_7_187
*669 FILLER_0_7_191
*670 FILLER_0_7_195
*671 FILLER_0_7_199
*672 FILLER_0_7_203
*673 FILLER_0_7_215
*674 FILLER_0_7_223
*675 FILLER_0_7_225
*676 FILLER_0_7_237
*677 FILLER_0_7_243
*678 FILLER_0_7_250
*679 FILLER_0_7_254
*680 FILLER_0_7_266
*681 FILLER_0_7_27
*682 FILLER_0_7_278
*683 FILLER_0_7_281
*684 FILLER_0_7_293
*685 FILLER_0_7_3
*686 FILLER_0_7_305
*687 FILLER_0_7_317
*688 FILLER_0_7_329
*689 FILLER_0_7_335
*690 FILLER_0_7_337
*691 FILLER_0_7_349
*692 FILLER_0_7_361
*693 FILLER_0_7_373
*694 FILLER_0_7_385
*695 FILLER_0_7_39
*696 FILLER_0_7_391
*697 FILLER_0_7_393
*698 FILLER_0_7_405
*699 FILLER_0_7_417
*700 FILLER_0_7_429
*701 FILLER_0_7_441
*702 FILLER_0_7_447
*703 FILLER_0_7_449
*704 FILLER_0_7_457
*705 FILLER_0_7_47
*706 FILLER_0_7_53
*707 FILLER_0_7_60
*708 FILLER_0_7_68
*709 FILLER_0_7_80
*710 FILLER_0_8_100
*711 FILLER_0_8_141
*712 FILLER_0_8_15
*713 FILLER_0_8_191
*714 FILLER_0_8_224
*715 FILLER_0_8_233
*716 FILLER_0_8_240
*717 FILLER_0_8_253
*718 FILLER_0_8_259
*719 FILLER_0_8_266
*720 FILLER_0_8_27
*721 FILLER_0_8_271
*722 FILLER_0_8_275
*723 FILLER_0_8_279
*724 FILLER_0_8_283
*725 FILLER_0_8_29
*726 FILLER_0_8_293
*727 FILLER_0_8_3
*728 FILLER_0_8_305
*729 FILLER_0_8_318
*730 FILLER_0_8_330
*731 FILLER_0_8_342
*732 FILLER_0_8_346
*733 FILLER_0_8_356
*734 FILLER_0_8_362
*735 FILLER_0_8_365
*736 FILLER_0_8_41
*737 FILLER_0_8_419
*738 FILLER_0_8_433
*739 FILLER_0_8_445
*740 FILLER_0_8_457
*741 FILLER_0_8_85
*742 FILLER_0_9_122
*743 FILLER_0_9_126
*744 FILLER_0_9_15
*745 FILLER_0_9_225
*746 FILLER_0_9_251
*747 FILLER_0_9_27
*748 FILLER_0_9_29
*749 FILLER_0_9_3
*750 FILLER_0_9_355
*751 FILLER_0_9_362
*752 FILLER_0_9_417
*753 FILLER_0_9_433
*754 FILLER_0_9_445
*755 FILLER_0_9_449
*756 FILLER_0_9_457
*757 FILLER_0_9_88
*758 FILLER_0_9_94
*759 FILLER_0_9_98
*760 PHY_0
*761 PHY_1
*762 PHY_10
*763 PHY_11
*764 PHY_12
*765 PHY_13
*766 PHY_14
*767 PHY_15
*768 PHY_16
*769 PHY_17
*770 PHY_18
*771 PHY_19
*772 PHY_2
*773 PHY_3
*774 PHY_4
*775 PHY_5
*776 PHY_6
*777 PHY_7
*778 PHY_8
*779 PHY_9
*780 S_term_single_147
*781 TAP_100
*782 TAP_101
*783 TAP_102
*784 TAP_103
*785 TAP_104
*786 TAP_105
*787 TAP_106
*788 TAP_107
*789 TAP_108
*790 TAP_109
*791 TAP_110
*792 TAP_111
*793 TAP_112
*794 TAP_113
*795 TAP_114
*796 TAP_115
*797 TAP_20
*798 TAP_21
*799 TAP_22
*800 TAP_23
*801 TAP_24
*802 TAP_25
*803 TAP_26
*804 TAP_27
*805 TAP_28
*806 TAP_29
*807 TAP_30
*808 TAP_31
*809 TAP_32
*810 TAP_33
*811 TAP_34
*812 TAP_35
*813 TAP_36
*814 TAP_37
*815 TAP_38
*816 TAP_39
*817 TAP_40
*818 TAP_41
*819 TAP_42
*820 TAP_43
*821 TAP_44
*822 TAP_45
*823 TAP_46
*824 TAP_47
*825 TAP_48
*826 TAP_49
*827 TAP_50
*828 TAP_51
*829 TAP_52
*830 TAP_53
*831 TAP_54
*832 TAP_55
*833 TAP_56
*834 TAP_57
*835 TAP_58
*836 TAP_59
*837 TAP_60
*838 TAP_61
*839 TAP_62
*840 TAP_63
*841 TAP_64
*842 TAP_65
*843 TAP_66
*844 TAP_67
*845 TAP_68
*846 TAP_69
*847 TAP_70
*848 TAP_71
*849 TAP_72
*850 TAP_73
*851 TAP_74
*852 TAP_75
*853 TAP_76
*854 TAP_77
*855 TAP_78
*856 TAP_79
*857 TAP_80
*858 TAP_81
*859 TAP_82
*860 TAP_83
*861 TAP_84
*862 TAP_85
*863 TAP_86
*864 TAP_87
*865 TAP_88
*866 TAP_89
*867 TAP_90
*868 TAP_91
*869 TAP_92
*870 TAP_93
*871 TAP_94
*872 TAP_95
*873 TAP_96
*874 TAP_97
*875 TAP_98
*876 TAP_99
*877 _01_
*878 _02_
*879 _03_
*880 _04_
*881 _05_
*882 _06_
*883 _07_
*884 _08_
*885 _09_
*886 _10_
*887 _11_
*888 _12_
*889 _13_
*890 _14_
*891 _15_
*892 _16_
*893 _17_
*894 _18_
*895 _19_
*896 _20_
*897 _21_
*898 _22_
*899 _23_
*900 _24_
*901 _25_
*902 _26_
*903 _27_
*904 _28_
*905 _29_
*906 _30_
*907 _31_
*908 _32_
*909 _33_
*910 _34_
*911 _35_
*912 _36_
*913 _37_
*914 _38_
*915 _39_
*916 _40_
*917 _41_
*918 _42_
*919 _43_
*920 _44_
*921 _45_
*922 _46_
*923 _47_
*924 _48_
*925 _49_
*926 _50_
*927 _51_
*928 _52_
*929 _53_
*930 _54_
*931 _55_
*932 _56_
*933 _57_
*934 _58_
*935 _59_
*936 _60_
*937 _61_
*938 _62_
*939 _63_
*940 _64_
*941 _65_
*942 _66_
*943 _67_
*944 _68_
*945 _69_
*946 _70_
*947 _71_
*948 _72_
*949 _73_
*950 input1
*951 input10
*952 input11
*953 input12
*954 input13
*955 input14
*956 input15
*957 input16
*958 input17
*959 input18
*960 input19
*961 input2
*962 input20
*963 input21
*964 input22
*965 input23
*966 input24
*967 input25
*968 input26
*969 input27
*970 input28
*971 input29
*972 input3
*973 input30
*974 input31
*975 input32
*976 input33
*977 input34
*978 input35
*979 input36
*980 input37
*981 input38
*982 input39
*983 input4
*984 input40
*985 input41
*986 input42
*987 input43
*988 input44
*989 input45
*990 input46
*991 input47
*992 input48
*993 input49
*994 input5
*995 input50
*996 input51
*997 input52
*998 input53
*999 input54
*1000 input55
*1001 input56
*1002 input57
*1003 input58
*1004 input59
*1005 input6
*1006 input60
*1007 input61
*1008 input62
*1009 input63
*1010 input64
*1011 input65
*1012 input66
*1013 input67
*1014 input68
*1015 input69
*1016 input7
*1017 input70
*1018 input71
*1019 input72
*1020 input73
*1021 input8
*1022 input9
*1023 output100
*1024 output101
*1025 output102
*1026 output103
*1027 output104
*1028 output105
*1029 output106
*1030 output107
*1031 output108
*1032 output109
*1033 output110
*1034 output111
*1035 output112
*1036 output113
*1037 output114
*1038 output115
*1039 output116
*1040 output117
*1041 output118
*1042 output119
*1043 output120
*1044 output121
*1045 output122
*1046 output123
*1047 output124
*1048 output125
*1049 output126
*1050 output127
*1051 output128
*1052 output129
*1053 output130
*1054 output131
*1055 output132
*1056 output133
*1057 output134
*1058 output135
*1059 output136
*1060 output137
*1061 output138
*1062 output139
*1063 output140
*1064 output141
*1065 output142
*1066 output143
*1067 output144
*1068 output145
*1069 output146
*1070 output74
*1071 output75
*1072 output76
*1073 output77
*1074 output78
*1075 output79
*1076 output80
*1077 output81
*1078 output82
*1079 output83
*1080 output84
*1081 output85
*1082 output86
*1083 output87
*1084 output88
*1085 output89
*1086 output90
*1087 output91
*1088 output92
*1089 output93
*1090 output94
*1091 output95
*1092 output96
*1093 output97
*1094 output98
*1095 output99

*PORTS
Co O
FrameStrobe[0] I
FrameStrobe[10] I
FrameStrobe[11] I
FrameStrobe[12] I
FrameStrobe[13] I
FrameStrobe[14] I
FrameStrobe[15] I
FrameStrobe[16] I
FrameStrobe[17] I
FrameStrobe[18] I
FrameStrobe[19] I
FrameStrobe[1] I
FrameStrobe[2] I
FrameStrobe[3] I
FrameStrobe[4] I
FrameStrobe[5] I
FrameStrobe[6] I
FrameStrobe[7] I
FrameStrobe[8] I
FrameStrobe[9] I
FrameStrobe_O[0] O
FrameStrobe_O[10] O
FrameStrobe_O[11] O
FrameStrobe_O[12] O
FrameStrobe_O[13] O
FrameStrobe_O[14] O
FrameStrobe_O[15] O
FrameStrobe_O[16] O
FrameStrobe_O[17] O
FrameStrobe_O[18] O
FrameStrobe_O[19] O
FrameStrobe_O[1] O
FrameStrobe_O[2] O
FrameStrobe_O[3] O
FrameStrobe_O[4] O
FrameStrobe_O[5] O
FrameStrobe_O[6] O
FrameStrobe_O[7] O
FrameStrobe_O[8] O
FrameStrobe_O[9] O
N1BEG[0] O
N1BEG[1] O
N1BEG[2] O
N1BEG[3] O
N2BEG[0] O
N2BEG[1] O
N2BEG[2] O
N2BEG[3] O
N2BEG[4] O
N2BEG[5] O
N2BEG[6] O
N2BEG[7] O
N2BEGb[0] O
N2BEGb[1] O
N2BEGb[2] O
N2BEGb[3] O
N2BEGb[4] O
N2BEGb[5] O
N2BEGb[6] O
N2BEGb[7] O
N4BEG[0] O
N4BEG[10] O
N4BEG[11] O
N4BEG[12] O
N4BEG[13] O
N4BEG[14] O
N4BEG[15] O
N4BEG[1] O
N4BEG[2] O
N4BEG[3] O
N4BEG[4] O
N4BEG[5] O
N4BEG[6] O
N4BEG[7] O
N4BEG[8] O
N4BEG[9] O
NN4BEG[0] O
NN4BEG[10] O
NN4BEG[11] O
NN4BEG[12] O
NN4BEG[13] O
NN4BEG[14] O
NN4BEG[15] O
NN4BEG[1] O
NN4BEG[2] O
NN4BEG[3] O
NN4BEG[4] O
NN4BEG[5] O
NN4BEG[6] O
NN4BEG[7] O
NN4BEG[8] O
NN4BEG[9] O
S1END[0] I
S1END[1] I
S1END[2] I
S1END[3] I
S2END[0] I
S2END[1] I
S2END[2] I
S2END[3] I
S2END[4] I
S2END[5] I
S2END[6] I
S2END[7] I
S2MID[0] I
S2MID[1] I
S2MID[2] I
S2MID[3] I
S2MID[4] I
S2MID[5] I
S2MID[6] I
S2MID[7] I
S4END[0] I
S4END[10] I
S4END[11] I
S4END[12] I
S4END[13] I
S4END[14] I
S4END[15] I
S4END[1] I
S4END[2] I
S4END[3] I
S4END[4] I
S4END[5] I
S4END[6] I
S4END[7] I
S4END[8] I
S4END[9] I
SS4END[0] I
SS4END[10] I
SS4END[11] I
SS4END[12] I
SS4END[13] I
SS4END[14] I
SS4END[15] I
SS4END[1] I
SS4END[2] I
SS4END[3] I
SS4END[4] I
SS4END[5] I
SS4END[6] I
SS4END[7] I
SS4END[8] I
SS4END[9] I
UserCLK I
UserCLKo O

*D_NET *1 0.00185915
*CONN
*P Co O
*I *780:LO O *D sky130_fd_sc_hd__conb_1
*CAP
1 Co 0.000417455
2 *780:LO 0.000417455
3 Co FrameStrobe_O[0] 0.000339785
4 Co FrameStrobe_O[1] 0
5 Co UserCLKo 0.000339785
6 Co *1009:A 0
7 Co *1086:A 0.00014183
8 Co *251:14 0
9 Co *268:14 0.000202842
*RES
1 *780:LO Co 28.7286 
*END

*D_NET *2 0.00139763
*CONN
*P FrameStrobe[0] I
*I *950:A I *D sky130_fd_sc_hd__dlymetal6s2s_1
*CAP
1 FrameStrobe[0] 0.000698815
2 *950:A 0.000698815
3 *950:A *150:14 0
*RES
1 FrameStrobe[0] *950:A 26.925 
*END

*D_NET *3 0.00124106
*CONN
*P FrameStrobe[10] I
*I *961:A I *D sky130_fd_sc_hd__clkbuf_1
*CAP
1 FrameStrobe[10] 0.000620531
2 *961:A 0.000620531
*RES
1 FrameStrobe[10] *961:A 25.6929 
*END

*D_NET *4 0.00119245
*CONN
*P FrameStrobe[11] I
*I *972:A I *D sky130_fd_sc_hd__buf_1
*CAP
1 FrameStrobe[11] 0.000539646
2 *972:A 0.000539646
3 *972:A *219:10 0.00011316
*RES
1 FrameStrobe[11] *972:A 24.9964 
*END

*D_NET *5 0.00134743
*CONN
*P FrameStrobe[12] I
*I *983:A I *D sky130_fd_sc_hd__buf_1
*CAP
1 FrameStrobe[12] 0.00055261
2 *983:A 0.00055261
3 *983:A *283:20 0.000242206
*RES
1 FrameStrobe[12] *983:A 24.8714 
*END

*D_NET *6 0.00127969
*CONN
*P FrameStrobe[13] I
*I *994:A I *D sky130_fd_sc_hd__clkbuf_1
*CAP
1 FrameStrobe[13] 0.000639845
2 *994:A 0.000639845
*RES
1 FrameStrobe[13] *994:A 25.6929 
*END

*D_NET *7 0.00159991
*CONN
*P FrameStrobe[14] I
*I *1005:A I *D sky130_fd_sc_hd__clkbuf_1
*CAP
1 FrameStrobe[14] 0.000683666
2 *1005:A 0.000683666
3 *1005:A *944:A 3.60626e-05
4 *1005:A *945:A 0
5 *1005:A *230:18 5.86416e-05
6 *1005:A *283:20 0.000137874
*RES
1 FrameStrobe[14] *1005:A 36.8714 
*END

*D_NET *8 0.00127388
*CONN
*P FrameStrobe[15] I
*I *1016:A I *D sky130_fd_sc_hd__clkbuf_1
*CAP
1 FrameStrobe[15] 0.000636942
2 *1016:A 0.000636942
3 *1016:A *184:28 0
4 *1016:A *283:20 0
5 *1016:A *283:32 0
*RES
1 FrameStrobe[15] *1016:A 25.6929 
*END

*D_NET *9 0.0019892
*CONN
*P FrameStrobe[16] I
*I *1021:A I *D sky130_fd_sc_hd__clkbuf_1
*CAP
1 FrameStrobe[16] 0.000658706
2 *1021:A 0.000658706
3 *1021:A *883:A 0.000163481
4 *1021:A *884:A 0
5 *1021:A *885:A 0.000153485
6 *1021:A *1073:A 7.32955e-05
7 *1021:A *272:16 0.0002317
8 *1021:A *275:12 4.98309e-05
*RES
1 FrameStrobe[16] *1021:A 29.8536 
*END

*D_NET *10 0.00121757
*CONN
*P FrameStrobe[17] I
*I *1022:A I *D sky130_fd_sc_hd__clkbuf_1
*CAP
1 FrameStrobe[17] 0.000608784
2 *1022:A 0.000608784
3 *1022:A *275:12 0
*RES
1 FrameStrobe[17] *1022:A 27.2821 
*END

*D_NET *11 0.00122934
*CONN
*P FrameStrobe[18] I
*I *951:A I *D sky130_fd_sc_hd__clkbuf_1
*CAP
1 FrameStrobe[18] 0.000614671
2 *951:A 0.000614671
*RES
1 FrameStrobe[18] *951:A 25.8179 
*END

*D_NET *12 0.00119592
*CONN
*P FrameStrobe[19] I
*I *952:A I *D sky130_fd_sc_hd__clkbuf_1
*CAP
1 FrameStrobe[19] 0.00059796
2 *952:A 0.00059796
*RES
1 FrameStrobe[19] *952:A 25.6929 
*END

*D_NET *13 0.0011349
*CONN
*P FrameStrobe[1] I
*I *953:A I *D sky130_fd_sc_hd__buf_1
*CAP
1 FrameStrobe[1] 0.000567451
2 *953:A 0.000567451
*RES
1 FrameStrobe[1] *953:A 24.8714 
*END

*D_NET *14 0.0011926
*CONN
*P FrameStrobe[2] I
*I *954:A I *D sky130_fd_sc_hd__buf_1
*CAP
1 FrameStrobe[2] 0.000575503
2 *954:A 0.000575503
3 *954:A *184:12 4.15914e-05
*RES
1 FrameStrobe[2] *954:A 24.8714 
*END

*D_NET *15 0.00116875
*CONN
*P FrameStrobe[3] I
*I *955:A I *D sky130_fd_sc_hd__buf_1
*CAP
1 FrameStrobe[3] 0.000563579
2 *955:A 0.000563579
3 *955:A *195:10 4.15914e-05
*RES
1 FrameStrobe[3] *955:A 24.9964 
*END

*D_NET *16 0.00126974
*CONN
*P FrameStrobe[4] I
*I *956:A I *D sky130_fd_sc_hd__clkbuf_1
*CAP
1 FrameStrobe[4] 0.000634872
2 *956:A 0.000634872
*RES
1 FrameStrobe[4] *956:A 25.6929 
*END

*D_NET *17 0.00153373
*CONN
*P FrameStrobe[5] I
*I *957:A I *D sky130_fd_sc_hd__clkbuf_1
*CAP
1 FrameStrobe[5] 0.000623476
2 *957:A 0.000623476
3 *957:A *877:A 5.62995e-05
4 *957:A *283:6 0.000230482
*RES
1 FrameStrobe[5] *957:A 26.5143 
*END

*D_NET *18 0.00124106
*CONN
*P FrameStrobe[6] I
*I *958:A I *D sky130_fd_sc_hd__clkbuf_1
*CAP
1 FrameStrobe[6] 0.000620531
2 *958:A 0.000620531
*RES
1 FrameStrobe[6] *958:A 25.6929 
*END

*D_NET *19 0.00124106
*CONN
*P FrameStrobe[7] I
*I *959:A I *D sky130_fd_sc_hd__clkbuf_1
*CAP
1 FrameStrobe[7] 0.000620531
2 *959:A 0.000620531
*RES
1 FrameStrobe[7] *959:A 25.6929 
*END

*D_NET *20 0.00124106
*CONN
*P FrameStrobe[8] I
*I *960:A I *D sky130_fd_sc_hd__clkbuf_1
*CAP
1 FrameStrobe[8] 0.000620531
2 *960:A 0.000620531
*RES
1 FrameStrobe[8] *960:A 25.6929 
*END

*D_NET *21 0.00127312
*CONN
*P FrameStrobe[9] I
*I *962:A I *D sky130_fd_sc_hd__clkbuf_1
*CAP
1 FrameStrobe[9] 0.000636561
2 *962:A 0.000636561
*RES
1 FrameStrobe[9] *962:A 27.2821 
*END

*D_NET *22 0.00171854
*CONN
*P FrameStrobe_O[0] O
*I *1070:X O *D sky130_fd_sc_hd__clkbuf_4
*CAP
1 FrameStrobe_O[0] 0.00041141
2 *1070:X 0.00041141
3 FrameStrobe_O[0] FrameStrobe_O[1] 0.000482641
4 FrameStrobe_O[0] *268:14 7.32955e-05
5 Co FrameStrobe_O[0] 0.000339785
*RES
1 *1070:X FrameStrobe_O[0] 26.925 
*END

*D_NET *23 0.00240425
*CONN
*P FrameStrobe_O[10] O
*I *1071:X O *D sky130_fd_sc_hd__clkbuf_4
*CAP
1 FrameStrobe_O[10] 0.000502799
2 *1071:X 0.000502799
3 FrameStrobe_O[10] FrameStrobe_O[11] 0.000222892
4 FrameStrobe_O[10] FrameStrobe_O[12] 1.21258e-05
5 FrameStrobe_O[10] FrameStrobe_O[8] 0
6 FrameStrobe_O[10] FrameStrobe_O[9] 0.000585793
7 FrameStrobe_O[10] *883:A 0.000106533
8 FrameStrobe_O[10] *1071:A 0.000229456
9 FrameStrobe_O[10] *1073:A 2.59355e-05
10 FrameStrobe_O[10] *1087:A 5.88087e-05
11 FrameStrobe_O[10] *24:26 0.000139907
12 FrameStrobe_O[10] *287:40 1.71987e-05
*RES
1 *1071:X FrameStrobe_O[10] 30.7821 
*END

*D_NET *24 0.00399069
*CONN
*P FrameStrobe_O[11] O
*I *1072:X O *D sky130_fd_sc_hd__clkbuf_4
*CAP
1 FrameStrobe_O[11] 0.000389062
2 *1072:X 0.00050796
3 *24:26 0.000897022
4 FrameStrobe_O[11] FrameStrobe_O[12] 0.000747958
5 FrameStrobe_O[11] *1087:A 9.4736e-05
6 *24:26 FrameStrobe_O[12] 1.59373e-05
7 *24:26 FrameStrobe_O[13] 0.000181374
8 *24:26 FrameStrobe_O[14] 8.14787e-05
9 *24:26 *1073:A 6.05105e-05
10 *24:26 *1089:A 0
11 *24:26 *272:16 0.000312736
12 *24:26 *276:16 0.000339116
13 FrameStrobe_O[10] FrameStrobe_O[11] 0.000222892
14 FrameStrobe_O[10] *24:26 0.000139907
*RES
1 *1072:X *24:26 43.8536 
2 *24:26 FrameStrobe_O[11] 14.3393 
*END

*D_NET *25 0.0025681
*CONN
*P FrameStrobe_O[12] O
*I *1073:X O *D sky130_fd_sc_hd__clkbuf_4
*CAP
1 FrameStrobe_O[12] 0.000549336
2 *1073:X 0.000549336
3 FrameStrobe_O[12] FrameStrobe_O[13] 0.000351621
4 FrameStrobe_O[12] *1073:A 0.000213508
5 FrameStrobe_O[12] *1087:A 2.95221e-07
6 FrameStrobe_O[12] *1089:A 0.00012798
7 FrameStrobe_O[12] *287:40 0
8 FrameStrobe_O[10] FrameStrobe_O[12] 1.21258e-05
9 FrameStrobe_O[11] FrameStrobe_O[12] 0.000747958
10 *24:26 FrameStrobe_O[12] 1.59373e-05
*RES
1 *1073:X FrameStrobe_O[12] 30.8714 
*END

*D_NET *26 0.00365672
*CONN
*P FrameStrobe_O[13] O
*I *1074:X O *D sky130_fd_sc_hd__clkbuf_4
*CAP
1 FrameStrobe_O[13] 0.00117915
2 *1074:X 0.00117915
3 FrameStrobe_O[13] FrameStrobe_O[14] 0.000222892
4 FrameStrobe_O[13] FrameStrobe_O[17] 0.000153054
5 FrameStrobe_O[13] FrameStrobe_O[19] 0
6 FrameStrobe_O[13] *1075:A 4.038e-06
7 FrameStrobe_O[13] *1089:A 0.000337637
8 FrameStrobe_O[13] *275:12 4.78056e-05
9 FrameStrobe_O[12] FrameStrobe_O[13] 0.000351621
10 *24:26 FrameStrobe_O[13] 0.000181374
*RES
1 *1074:X FrameStrobe_O[13] 47.1214 
*END

*D_NET *27 0.00248131
*CONN
*P FrameStrobe_O[14] O
*I *1075:X O *D sky130_fd_sc_hd__clkbuf_4
*CAP
1 FrameStrobe_O[14] 0.000607015
2 *1075:X 0.000607015
3 FrameStrobe_O[14] FrameStrobe_O[15] 0.000952013
4 FrameStrobe_O[14] *276:16 1.08936e-05
5 FrameStrobe_O[13] FrameStrobe_O[14] 0.000222892
6 *24:26 FrameStrobe_O[14] 8.14787e-05
*RES
1 *1075:X FrameStrobe_O[14] 31.1214 
*END

*D_NET *28 0.00293834
*CONN
*P FrameStrobe_O[15] O
*I *1076:X O *D sky130_fd_sc_hd__clkbuf_4
*CAP
1 FrameStrobe_O[15] 0.000643614
2 *1076:X 0.000643614
3 FrameStrobe_O[15] FrameStrobe_O[16] 0.000202817
4 FrameStrobe_O[15] FrameStrobe_O[17] 2.44318e-05
5 FrameStrobe_O[15] *1075:A 9.41642e-05
6 FrameStrobe_O[15] *1076:A 0.000139913
7 FrameStrobe_O[15] *272:16 1.00375e-05
8 FrameStrobe_O[15] *276:16 0.000227736
9 FrameStrobe_O[14] FrameStrobe_O[15] 0.000952013
*RES
1 *1076:X FrameStrobe_O[15] 32.3536 
*END

*D_NET *29 0.00258457
*CONN
*P FrameStrobe_O[16] O
*I *1077:X O *D sky130_fd_sc_hd__clkbuf_4
*CAP
1 FrameStrobe_O[16] 0.00054769
2 *1077:X 0.00054769
3 FrameStrobe_O[16] FrameStrobe_O[17] 0.00058823
4 FrameStrobe_O[16] FrameStrobe_O[18] 0.000404707
5 FrameStrobe_O[16] *272:16 5.52238e-05
6 FrameStrobe_O[16] *276:16 0.000238208
7 FrameStrobe_O[15] FrameStrobe_O[16] 0.000202817
*RES
1 *1077:X FrameStrobe_O[16] 31.9964 
*END

*D_NET *30 0.00266729
*CONN
*P FrameStrobe_O[17] O
*I *1078:X O *D sky130_fd_sc_hd__clkbuf_4
*CAP
1 FrameStrobe_O[17] 0.000573502
2 *1078:X 0.000573502
3 FrameStrobe_O[17] FrameStrobe_O[18] 0.000342025
4 FrameStrobe_O[17] FrameStrobe_O[19] 0.000232399
5 FrameStrobe_O[17] *1075:A 4.46186e-06
6 FrameStrobe_O[17] *1076:A 9.80173e-05
7 FrameStrobe_O[17] *272:16 7.76647e-05
8 FrameStrobe_O[13] FrameStrobe_O[17] 0.000153054
9 FrameStrobe_O[15] FrameStrobe_O[17] 2.44318e-05
10 FrameStrobe_O[16] FrameStrobe_O[17] 0.00058823
*RES
1 *1078:X FrameStrobe_O[17] 33.05 
*END

*D_NET *31 0.00239794
*CONN
*P FrameStrobe_O[18] O
*I *1079:X O *D sky130_fd_sc_hd__clkbuf_4
*CAP
1 FrameStrobe_O[18] 0.000654594
2 *1079:X 0.000654594
3 FrameStrobe_O[18] FrameStrobe_O[19] 0.000342025
4 FrameStrobe_O[16] FrameStrobe_O[18] 0.000404707
5 FrameStrobe_O[17] FrameStrobe_O[18] 0.000342025
*RES
1 *1079:X FrameStrobe_O[18] 30.3357 
*END

*D_NET *32 0.00229713
*CONN
*P FrameStrobe_O[19] O
*I *1080:X O *D sky130_fd_sc_hd__clkbuf_4
*CAP
1 FrameStrobe_O[19] 0.000822465
2 *1080:X 0.000822465
3 FrameStrobe_O[19] *278:12 0
4 FrameStrobe_O[19] *279:14 7.77751e-05
5 FrameStrobe_O[13] FrameStrobe_O[19] 0
6 FrameStrobe_O[17] FrameStrobe_O[19] 0.000232399
7 FrameStrobe_O[18] FrameStrobe_O[19] 0.000342025
*RES
1 *1080:X FrameStrobe_O[19] 32.8357 
*END

*D_NET *33 0.00191827
*CONN
*P FrameStrobe_O[1] O
*I *1081:X O *D sky130_fd_sc_hd__clkbuf_4
*CAP
1 FrameStrobe_O[1] 0.000488455
2 *1081:X 0.000488455
3 FrameStrobe_O[1] FrameStrobe_O[2] 0.000202817
4 FrameStrobe_O[1] *268:14 0.00010096
5 FrameStrobe_O[1] *280:16 0.000137505
6 FrameStrobe_O[1] *281:16 1.74352e-05
7 Co FrameStrobe_O[1] 0
8 FrameStrobe_O[0] FrameStrobe_O[1] 0.000482641