*SPEF "ieee 1481-1999"
*DESIGN "S_term_single2"
*DATE "11:11:11 Fri 11 11, 1111"
*VENDOR "OpenRCX"
*PROGRAM "Parallel Extraction"
*VERSION "1.0"
*DESIGN_FLOW "NAME_SCOPE LOCAL" "PIN_CAP NONE"
*DIVIDER /
*DELIMITER :
*BUS_DELIMITER []
*T_UNIT 1 NS
*C_UNIT 1 PF
*R_UNIT 1 OHM
*L_UNIT 1 HENRY

*NAME_MAP
*1 FrameStrobe[0]
*2 FrameStrobe[10]
*3 FrameStrobe[11]
*4 FrameStrobe[12]
*5 FrameStrobe[13]
*6 FrameStrobe[14]
*7 FrameStrobe[15]
*8 FrameStrobe[16]
*9 FrameStrobe[17]
*10 FrameStrobe[18]
*11 FrameStrobe[19]
*12 FrameStrobe[1]
*13 FrameStrobe[2]
*14 FrameStrobe[3]
*15 FrameStrobe[4]
*16 FrameStrobe[5]
*17 FrameStrobe[6]
*18 FrameStrobe[7]
*19 FrameStrobe[8]
*20 FrameStrobe[9]
*21 FrameStrobe_O[0]
*22 FrameStrobe_O[10]
*23 FrameStrobe_O[11]
*24 FrameStrobe_O[12]
*25 FrameStrobe_O[13]
*26 FrameStrobe_O[14]
*27 FrameStrobe_O[15]
*28 FrameStrobe_O[16]
*29 FrameStrobe_O[17]
*30 FrameStrobe_O[18]
*31 FrameStrobe_O[19]
*32 FrameStrobe_O[1]
*33 FrameStrobe_O[2]
*34 FrameStrobe_O[3]
*35 FrameStrobe_O[4]
*36 FrameStrobe_O[5]
*37 FrameStrobe_O[6]
*38 FrameStrobe_O[7]
*39 FrameStrobe_O[8]
*40 FrameStrobe_O[9]
*41 N1BEG[0]
*42 N1BEG[1]
*43 N1BEG[2]
*44 N1BEG[3]
*45 N2BEG[0]
*46 N2BEG[1]
*47 N2BEG[2]
*48 N2BEG[3]
*49 N2BEG[4]
*50 N2BEG[5]
*51 N2BEG[6]
*52 N2BEG[7]
*53 N2BEGb[0]
*54 N2BEGb[1]
*55 N2BEGb[2]
*56 N2BEGb[3]
*57 N2BEGb[4]
*58 N2BEGb[5]
*59 N2BEGb[6]
*60 N2BEGb[7]
*61 N4BEG[0]
*62 N4BEG[10]
*63 N4BEG[11]
*64 N4BEG[12]
*65 N4BEG[13]
*66 N4BEG[14]
*67 N4BEG[15]
*68 N4BEG[1]
*69 N4BEG[2]
*70 N4BEG[3]
*71 N4BEG[4]
*72 N4BEG[5]
*73 N4BEG[6]
*74 N4BEG[7]
*75 N4BEG[8]
*76 N4BEG[9]
*77 NN4BEG[0]
*78 NN4BEG[10]
*79 NN4BEG[11]
*80 NN4BEG[12]
*81 NN4BEG[13]
*82 NN4BEG[14]
*83 NN4BEG[15]
*84 NN4BEG[1]
*85 NN4BEG[2]
*86 NN4BEG[3]
*87 NN4BEG[4]
*88 NN4BEG[5]
*89 NN4BEG[6]
*90 NN4BEG[7]
*91 NN4BEG[8]
*92 NN4BEG[9]
*93 S1END[0]
*94 S1END[1]
*95 S1END[2]
*96 S1END[3]
*97 S2END[0]
*98 S2END[1]
*99 S2END[2]
*100 S2END[3]
*101 S2END[4]
*102 S2END[5]
*103 S2END[6]
*104 S2END[7]
*105 S2MID[0]
*106 S2MID[1]
*107 S2MID[2]
*108 S2MID[3]
*109 S2MID[4]
*110 S2MID[5]
*111 S2MID[6]
*112 S2MID[7]
*113 S4END[0]
*114 S4END[10]
*115 S4END[11]
*116 S4END[12]
*117 S4END[13]
*118 S4END[14]
*119 S4END[15]
*120 S4END[1]
*121 S4END[2]
*122 S4END[3]
*123 S4END[4]
*124 S4END[5]
*125 S4END[6]
*126 S4END[7]
*127 S4END[8]
*128 S4END[9]
*129 SS4END[0]
*130 SS4END[10]
*131 SS4END[11]
*132 SS4END[12]
*133 SS4END[13]
*134 SS4END[14]
*135 SS4END[15]
*136 SS4END[1]
*137 SS4END[2]
*138 SS4END[3]
*139 SS4END[4]
*140 SS4END[5]
*141 SS4END[6]
*142 SS4END[7]
*143 SS4END[8]
*144 SS4END[9]
*145 UserCLK
*146 UserCLKo
*149 FrameStrobe_O_i\[0\]
*150 FrameStrobe_O_i\[10\]
*151 FrameStrobe_O_i\[11\]
*152 FrameStrobe_O_i\[12\]
*153 FrameStrobe_O_i\[13\]
*154 FrameStrobe_O_i\[14\]
*155 FrameStrobe_O_i\[15\]
*156 FrameStrobe_O_i\[16\]
*157 FrameStrobe_O_i\[17\]
*158 FrameStrobe_O_i\[18\]
*159 FrameStrobe_O_i\[19\]
*160 FrameStrobe_O_i\[1\]
*161 FrameStrobe_O_i\[2\]
*162 FrameStrobe_O_i\[3\]
*163 FrameStrobe_O_i\[4\]
*164 FrameStrobe_O_i\[5\]
*165 FrameStrobe_O_i\[6\]
*166 FrameStrobe_O_i\[7\]
*167 FrameStrobe_O_i\[8\]
*168 FrameStrobe_O_i\[9\]
*169 net1
*170 net10
*171 net100
*172 net101
*173 net102
*174 net103
*175 net104
*176 net105
*177 net106
*178 net107
*179 net108
*180 net109
*181 net11
*182 net110
*183 net111
*184 net112
*185 net113
*186 net114
*187 net115
*188 net116
*189 net117
*190 net118
*191 net119
*192 net12
*193 net120
*194 net121
*195 net122
*196 net123
*197 net124
*198 net125
*199 net126
*200 net127
*201 net128
*202 net129
*203 net13
*204 net130
*205 net131
*206 net132
*207 net133
*208 net134
*209 net135
*210 net136
*211 net137
*212 net138
*213 net139
*214 net14
*215 net140
*216 net141
*217 net142
*218 net143
*219 net144
*220 net145
*221 net146
*222 net15
*223 net16
*224 net17
*225 net18
*226 net19
*227 net2
*228 net20
*229 net21
*230 net22
*231 net23
*232 net24
*233 net25
*234 net26
*235 net27
*236 net28
*237 net29
*238 net3
*239 net30
*240 net31
*241 net32
*242 net33
*243 net34
*244 net35
*245 net36
*246 net37
*247 net38
*248 net39
*249 net4
*250 net40
*251 net41
*252 net42
*253 net43
*254 net44
*255 net45
*256 net46
*257 net47
*258 net48
*259 net49
*260 net5
*261 net50
*262 net51
*263 net52
*264 net53
*265 net54
*266 net55
*267 net56
*268 net57
*269 net58
*270 net59
*271 net6
*272 net60
*273 net61
*274 net62
*275 net63
*276 net64
*277 net65
*278 net66
*279 net67
*280 net68
*281 net69
*282 net7
*283 net70
*284 net71
*285 net72
*286 net73
*287 net74
*288 net75
*289 net76
*290 net77
*291 net78
*292 net79
*293 net8
*294 net80
*295 net81
*296 net82
*297 net83
*298 net84
*299 net85
*300 net86
*301 net87
*302 net88
*303 net89
*304 net9
*305 net90
*306 net91
*307 net92
*308 net93
*309 net94
*310 net95
*311 net96
*312 net97
*313 net98
*314 net99
*315 ANTENNA_1
*316 ANTENNA_2
*317 FILLER_0_0_101
*318 FILLER_0_0_109
*319 FILLER_0_0_113
*320 FILLER_0_0_121
*321 FILLER_0_0_125
*322 FILLER_0_0_137
*323 FILLER_0_0_141
*324 FILLER_0_0_145
*325 FILLER_0_0_149
*326 FILLER_0_0_161
*327 FILLER_0_0_167
*328 FILLER_0_0_169
*329 FILLER_0_0_173
*330 FILLER_0_0_18
*331 FILLER_0_0_185
*332 FILLER_0_0_193
*333 FILLER_0_0_200
*334 FILLER_0_0_212
*335 FILLER_0_0_221
*336 FILLER_0_0_225
*337 FILLER_0_0_231
*338 FILLER_0_0_239
*339 FILLER_0_0_245
*340 FILLER_0_0_251
*341 FILLER_0_0_253
*342 FILLER_0_0_26
*343 FILLER_0_0_265
*344 FILLER_0_0_269
*345 FILLER_0_0_277
*346 FILLER_0_0_281
*347 FILLER_0_0_289
*348 FILLER_0_0_293
*349 FILLER_0_0_305
*350 FILLER_0_0_309
*351 FILLER_0_0_313
*352 FILLER_0_0_317
*353 FILLER_0_0_32
*354 FILLER_0_0_329
*355 FILLER_0_0_335
*356 FILLER_0_0_337
*357 FILLER_0_0_341
*358 FILLER_0_0_353
*359 FILLER_0_0_361
*360 FILLER_0_0_368
*361 FILLER_0_0_380
*362 FILLER_0_0_389
*363 FILLER_0_0_393
*364 FILLER_0_0_405
*365 FILLER_0_0_409
*366 FILLER_0_0_413
*367 FILLER_0_0_419
*368 FILLER_0_0_421
*369 FILLER_0_0_433
*370 FILLER_0_0_437
*371 FILLER_0_0_44
*372 FILLER_0_0_445
*373 FILLER_0_0_449
*374 FILLER_0_0_457
*375 FILLER_0_0_461
*376 FILLER_0_0_473
*377 FILLER_0_0_53
*378 FILLER_0_0_57
*379 FILLER_0_0_6
*380 FILLER_0_0_69
*381 FILLER_0_0_73
*382 FILLER_0_0_77
*383 FILLER_0_0_83
*384 FILLER_0_0_85
*385 FILLER_0_0_97
*386 FILLER_0_10_109
*387 FILLER_0_10_121
*388 FILLER_0_10_133
*389 FILLER_0_10_139
*390 FILLER_0_10_141
*391 FILLER_0_10_153
*392 FILLER_0_10_165
*393 FILLER_0_10_177
*394 FILLER_0_10_189
*395 FILLER_0_10_195
*396 FILLER_0_10_197
*397 FILLER_0_10_209
*398 FILLER_0_10_21
*399 FILLER_0_10_221
*400 FILLER_0_10_233
*401 FILLER_0_10_245
*402 FILLER_0_10_251
*403 FILLER_0_10_253
*404 FILLER_0_10_265
*405 FILLER_0_10_27
*406 FILLER_0_10_277
*407 FILLER_0_10_289
*408 FILLER_0_10_29
*409 FILLER_0_10_301
*410 FILLER_0_10_307
*411 FILLER_0_10_309
*412 FILLER_0_10_321
*413 FILLER_0_10_333
*414 FILLER_0_10_345
*415 FILLER_0_10_357
*416 FILLER_0_10_363
*417 FILLER_0_10_365
*418 FILLER_0_10_377
*419 FILLER_0_10_389
*420 FILLER_0_10_401
*421 FILLER_0_10_41
*422 FILLER_0_10_413
*423 FILLER_0_10_419
*424 FILLER_0_10_421
*425 FILLER_0_10_433
*426 FILLER_0_10_445
*427 FILLER_0_10_457
*428 FILLER_0_10_463
*429 FILLER_0_10_477
*430 FILLER_0_10_53
*431 FILLER_0_10_65
*432 FILLER_0_10_77
*433 FILLER_0_10_83
*434 FILLER_0_10_85
*435 FILLER_0_10_9
*436 FILLER_0_10_97
*437 FILLER_0_11_105
*438 FILLER_0_11_111
*439 FILLER_0_11_113
*440 FILLER_0_11_125
*441 FILLER_0_11_137
*442 FILLER_0_11_149
*443 FILLER_0_11_161
*444 FILLER_0_11_167
*445 FILLER_0_11_169
*446 FILLER_0_11_17
*447 FILLER_0_11_177
*448 FILLER_0_11_181
*449 FILLER_0_11_189
*450 FILLER_0_11_196
*451 FILLER_0_11_200
*452 FILLER_0_11_205
*453 FILLER_0_11_217
*454 FILLER_0_11_223
*455 FILLER_0_11_225
*456 FILLER_0_11_241
*457 FILLER_0_11_245
*458 FILLER_0_11_252
*459 FILLER_0_11_264
*460 FILLER_0_11_276
*461 FILLER_0_11_281
*462 FILLER_0_11_29
*463 FILLER_0_11_293
*464 FILLER_0_11_3
*465 FILLER_0_11_305
*466 FILLER_0_11_317
*467 FILLER_0_11_329
*468 FILLER_0_11_335
*469 FILLER_0_11_337
*470 FILLER_0_11_349
*471 FILLER_0_11_361
*472 FILLER_0_11_373
*473 FILLER_0_11_385
*474 FILLER_0_11_391
*475 FILLER_0_11_393
*476 FILLER_0_11_405
*477 FILLER_0_11_41
*478 FILLER_0_11_417
*479 FILLER_0_11_429
*480 FILLER_0_11_441
*481 FILLER_0_11_447
*482 FILLER_0_11_449
*483 FILLER_0_11_457
*484 FILLER_0_11_476
*485 FILLER_0_11_53
*486 FILLER_0_11_57
*487 FILLER_0_11_69
*488 FILLER_0_11_81
*489 FILLER_0_11_93
*490 FILLER_0_12_100
*491 FILLER_0_12_122
*492 FILLER_0_12_132
*493 FILLER_0_12_147
*494 FILLER_0_12_159
*495 FILLER_0_12_171
*496 FILLER_0_12_197
*497 FILLER_0_12_277
*498 FILLER_0_12_281
*499 FILLER_0_12_285
*500 FILLER_0_12_3
*501 FILLER_0_12_301
*502 FILLER_0_12_307
*503 FILLER_0_12_309
*504 FILLER_0_12_321
*505 FILLER_0_12_333
*506 FILLER_0_12_345
*507 FILLER_0_12_35
*508 FILLER_0_12_357
*509 FILLER_0_12_363
*510 FILLER_0_12_365
*511 FILLER_0_12_377
*512 FILLER_0_12_389
*513 FILLER_0_12_40
*514 FILLER_0_12_401
*515 FILLER_0_12_413
*516 FILLER_0_12_419
*517 FILLER_0_12_421
*518 FILLER_0_12_437
*519 FILLER_0_12_449
*520 FILLER_0_12_474
*521 FILLER_0_12_477
*522 FILLER_0_12_52
*523 FILLER_0_12_62
*524 FILLER_0_12_7
*525 FILLER_0_12_72
*526 FILLER_0_12_91
*527 FILLER_0_12_95
*528 FILLER_0_13_113
*529 FILLER_0_13_128
*530 FILLER_0_13_14
*531 FILLER_0_13_141
*532 FILLER_0_13_175
*533 FILLER_0_13_194
*534 FILLER_0_13_197
*535 FILLER_0_13_208
*536 FILLER_0_13_240
*537 FILLER_0_13_245
*538 FILLER_0_13_253
*539 FILLER_0_13_269
*540 FILLER_0_13_273
*541 FILLER_0_13_277
*542 FILLER_0_13_29
*543 FILLER_0_13_293
*544 FILLER_0_13_297
*545 FILLER_0_13_3
*546 FILLER_0_13_301
*547 FILLER_0_13_305
*548 FILLER_0_13_321
*549 FILLER_0_13_325
*550 FILLER_0_13_329
*551 FILLER_0_13_333
*552 FILLER_0_13_34
*553 FILLER_0_13_349
*554 FILLER_0_13_353
*555 FILLER_0_13_357
*556 FILLER_0_13_361
*557 FILLER_0_13_377
*558 FILLER_0_13_381
*559 FILLER_0_13_385
*560 FILLER_0_13_389
*561 FILLER_0_13_405
*562 FILLER_0_13_409
*563 FILLER_0_13_443
*564 FILLER_0_13_447
*565 FILLER_0_13_473
*566 FILLER_0_13_477
*567 FILLER_0_13_61
*568 FILLER_0_13_68
*569 FILLER_0_13_8
*570 FILLER_0_13_85
*571 FILLER_0_13_96
*572 FILLER_0_1_105
*573 FILLER_0_1_111
*574 FILLER_0_1_113
*575 FILLER_0_1_125
*576 FILLER_0_1_137
*577 FILLER_0_1_149
*578 FILLER_0_1_15
*579 FILLER_0_1_161
*580 FILLER_0_1_167
*581 FILLER_0_1_169
*582 FILLER_0_1_181
*583 FILLER_0_1_193
*584 FILLER_0_1_202
*585 FILLER_0_1_209
*586 FILLER_0_1_217
*587 FILLER_0_1_225
*588 FILLER_0_1_245
*589 FILLER_0_1_250
*590 FILLER_0_1_262
*591 FILLER_0_1_27
*592 FILLER_0_1_270
*593 FILLER_0_1_274
*594 FILLER_0_1_281
*595 FILLER_0_1_293
*596 FILLER_0_1_298
*597 FILLER_0_1_3
*598 FILLER_0_1_310
*599 FILLER_0_1_318
*600 FILLER_0_1_322
*601 FILLER_0_1_334
*602 FILLER_0_1_337
*603 FILLER_0_1_346
*604 FILLER_0_1_358
*605 FILLER_0_1_366
*606 FILLER_0_1_370
*607 FILLER_0_1_382
*608 FILLER_0_1_39
*609 FILLER_0_1_390
*610 FILLER_0_1_396
*611 FILLER_0_1_408
*612 FILLER_0_1_420
*613 FILLER_0_1_432
*614 FILLER_0_1_443
*615 FILLER_0_1_447
*616 FILLER_0_1_449
*617 FILLER_0_1_457
*618 FILLER_0_1_463
*619 FILLER_0_1_468
*620 FILLER_0_1_473
*621 FILLER_0_1_479
*622 FILLER_0_1_51
*623 FILLER_0_1_55
*624 FILLER_0_1_57
*625 FILLER_0_1_69
*626 FILLER_0_1_81
*627 FILLER_0_1_93
*628 FILLER_0_2_109
*629 FILLER_0_2_121
*630 FILLER_0_2_133
*631 FILLER_0_2_139
*632 FILLER_0_2_141
*633 FILLER_0_2_15
*634 FILLER_0_2_153
*635 FILLER_0_2_165
*636 FILLER_0_2_177
*637 FILLER_0_2_189
*638 FILLER_0_2_195
*639 FILLER_0_2_197
*640 FILLER_0_2_205
*641 FILLER_0_2_212
*642 FILLER_0_2_224
*643 FILLER_0_2_228
*644 FILLER_0_2_236
*645 FILLER_0_2_253
*646 FILLER_0_2_259
*647 FILLER_0_2_27
*648 FILLER_0_2_271
*649 FILLER_0_2_279
*650 FILLER_0_2_283
*651 FILLER_0_2_29
*652 FILLER_0_2_295
*653 FILLER_0_2_3
*654 FILLER_0_2_303
*655 FILLER_0_2_307
*656 FILLER_0_2_309
*657 FILLER_0_2_321
*658 FILLER_0_2_327
*659 FILLER_0_2_331
*660 FILLER_0_2_343
*661 FILLER_0_2_351
*662 FILLER_0_2_355
*663 FILLER_0_2_363
*664 FILLER_0_2_365
*665 FILLER_0_2_373
*666 FILLER_0_2_379
*667 FILLER_0_2_391
*668 FILLER_0_2_399
*669 FILLER_0_2_403
*670 FILLER_0_2_41
*671 FILLER_0_2_415
*672 FILLER_0_2_419
*673 FILLER_0_2_421
*674 FILLER_0_2_433
*675 FILLER_0_2_445
*676 FILLER_0_2_457
*677 FILLER_0_2_474
*678 FILLER_0_2_53
*679 FILLER_0_2_65
*680 FILLER_0_2_77
*681 FILLER_0_2_83
*682 FILLER_0_2_85
*683 FILLER_0_2_97
*684 FILLER_0_3_105
*685 FILLER_0_3_111
*686 FILLER_0_3_113
*687 FILLER_0_3_125
*688 FILLER_0_3_137
*689 FILLER_0_3_149
*690 FILLER_0_3_15
*691 FILLER_0_3_161
*692 FILLER_0_3_167
*693 FILLER_0_3_169
*694 FILLER_0_3_181
*695 FILLER_0_3_193
*696 FILLER_0_3_205
*697 FILLER_0_3_217
*698 FILLER_0_3_223
*699 FILLER_0_3_225
*700 FILLER_0_3_237
*701 FILLER_0_3_249
*702 FILLER_0_3_261
*703 FILLER_0_3_27
*704 FILLER_0_3_273
*705 FILLER_0_3_279
*706 FILLER_0_3_281
*707 FILLER_0_3_293
*708 FILLER_0_3_3
*709 FILLER_0_3_305
*710 FILLER_0_3_317
*711 FILLER_0_3_329
*712 FILLER_0_3_335
*713 FILLER_0_3_337
*714 FILLER_0_3_349
*715 FILLER_0_3_361
*716 FILLER_0_3_373
*717 FILLER_0_3_385
*718 FILLER_0_3_39
*719 FILLER_0_3_391
*720 FILLER_0_3_393
*721 FILLER_0_3_405
*722 FILLER_0_3_417
*723 FILLER_0_3_429
*724 FILLER_0_3_441
*725 FILLER_0_3_447
*726 FILLER_0_3_449
*727 FILLER_0_3_461
*728 FILLER_0_3_473
*729 FILLER_0_3_479
*730 FILLER_0_3_51
*731 FILLER_0_3_55
*732 FILLER_0_3_57
*733 FILLER_0_3_69
*734 FILLER_0_3_81
*735 FILLER_0_3_93
*736 FILLER_0_4_109
*737 FILLER_0_4_121
*738 FILLER_0_4_133
*739 FILLER_0_4_139
*740 FILLER_0_4_141
*741 FILLER_0_4_15
*742 FILLER_0_4_153
*743 FILLER_0_4_165
*744 FILLER_0_4_177
*745 FILLER_0_4_189
*746 FILLER_0_4_195
*747 FILLER_0_4_197
*748 FILLER_0_4_209
*749 FILLER_0_4_221
*750 FILLER_0_4_233
*751 FILLER_0_4_245
*752 FILLER_0_4_251
*753 FILLER_0_4_253
*754 FILLER_0_4_265
*755 FILLER_0_4_27
*756 FILLER_0_4_277
*757 FILLER_0_4_289
*758 FILLER_0_4_29
*759 FILLER_0_4_3
*760 FILLER_0_4_301
*761 FILLER_0_4_307
*762 FILLER_0_4_309
*763 FILLER_0_4_321
*764 FILLER_0_4_333
*765 FILLER_0_4_345
*766 FILLER_0_4_357
*767 FILLER_0_4_363
*768 FILLER_0_4_365
*769 FILLER_0_4_377
*770 FILLER_0_4_389
*771 FILLER_0_4_401
*772 FILLER_0_4_41
*773 FILLER_0_4_413
*774 FILLER_0_4_419
*775 FILLER_0_4_421
*776 FILLER_0_4_433
*777 FILLER_0_4_445
*778 FILLER_0_4_457
*779 FILLER_0_4_469
*780 FILLER_0_4_475
*781 FILLER_0_4_477
*782 FILLER_0_4_53
*783 FILLER_0_4_65
*784 FILLER_0_4_77
*785 FILLER_0_4_83
*786 FILLER_0_4_85
*787 FILLER_0_4_97
*788 FILLER_0_5_105
*789 FILLER_0_5_111
*790 FILLER_0_5_113
*791 FILLER_0_5_125
*792 FILLER_0_5_137
*793 FILLER_0_5_149
*794 FILLER_0_5_15
*795 FILLER_0_5_161
*796 FILLER_0_5_167
*797 FILLER_0_5_169
*798 FILLER_0_5_181
*799 FILLER_0_5_193
*800 FILLER_0_5_205
*801 FILLER_0_5_217
*802 FILLER_0_5_223
*803 FILLER_0_5_225
*804 FILLER_0_5_237
*805 FILLER_0_5_249
*806 FILLER_0_5_261
*807 FILLER_0_5_27
*808 FILLER_0_5_273
*809 FILLER_0_5_279
*810 FILLER_0_5_281
*811 FILLER_0_5_293
*812 FILLER_0_5_3
*813 FILLER_0_5_305
*814 FILLER_0_5_317
*815 FILLER_0_5_329
*816 FILLER_0_5_335
*817 FILLER_0_5_337
*818 FILLER_0_5_349
*819 FILLER_0_5_361
*820 FILLER_0_5_373
*821 FILLER_0_5_385
*822 FILLER_0_5_39
*823 FILLER_0_5_391
*824 FILLER_0_5_393
*825 FILLER_0_5_405
*826 FILLER_0_5_417
*827 FILLER_0_5_429
*828 FILLER_0_5_441
*829 FILLER_0_5_447
*830 FILLER_0_5_449
*831 FILLER_0_5_461
*832 FILLER_0_5_473
*833 FILLER_0_5_479
*834 FILLER_0_5_51
*835 FILLER_0_5_55
*836 FILLER_0_5_57
*837 FILLER_0_5_69
*838 FILLER_0_5_81
*839 FILLER_0_5_93
*840 FILLER_0_6_109
*841 FILLER_0_6_121
*842 FILLER_0_6_133
*843 FILLER_0_6_139
*844 FILLER_0_6_141
*845 FILLER_0_6_15
*846 FILLER_0_6_153
*847 FILLER_0_6_165
*848 FILLER_0_6_177
*849 FILLER_0_6_189
*850 FILLER_0_6_195
*851 FILLER_0_6_197
*852 FILLER_0_6_209
*853 FILLER_0_6_221
*854 FILLER_0_6_233
*855 FILLER_0_6_245
*856 FILLER_0_6_251
*857 FILLER_0_6_253
*858 FILLER_0_6_265
*859 FILLER_0_6_27
*860 FILLER_0_6_277
*861 FILLER_0_6_289
*862 FILLER_0_6_29
*863 FILLER_0_6_3
*864 FILLER_0_6_301
*865 FILLER_0_6_307
*866 FILLER_0_6_309
*867 FILLER_0_6_321
*868 FILLER_0_6_333
*869 FILLER_0_6_345
*870 FILLER_0_6_357
*871 FILLER_0_6_363
*872 FILLER_0_6_365
*873 FILLER_0_6_377
*874 FILLER_0_6_389
*875 FILLER_0_6_401
*876 FILLER_0_6_41
*877 FILLER_0_6_413
*878 FILLER_0_6_419
*879 FILLER_0_6_421
*880 FILLER_0_6_433
*881 FILLER_0_6_445
*882 FILLER_0_6_457
*883 FILLER_0_6_469
*884 FILLER_0_6_475
*885 FILLER_0_6_477
*886 FILLER_0_6_53
*887 FILLER_0_6_65
*888 FILLER_0_6_77
*889 FILLER_0_6_83
*890 FILLER_0_6_85
*891 FILLER_0_6_97
*892 FILLER_0_7_105
*893 FILLER_0_7_111
*894 FILLER_0_7_113
*895 FILLER_0_7_125
*896 FILLER_0_7_137
*897 FILLER_0_7_149
*898 FILLER_0_7_15
*899 FILLER_0_7_161
*900 FILLER_0_7_167
*901 FILLER_0_7_169
*902 FILLER_0_7_181
*903 FILLER_0_7_193
*904 FILLER_0_7_205
*905 FILLER_0_7_217
*906 FILLER_0_7_223
*907 FILLER_0_7_225
*908 FILLER_0_7_237
*909 FILLER_0_7_249
*910 FILLER_0_7_261
*911 FILLER_0_7_27
*912 FILLER_0_7_273
*913 FILLER_0_7_279
*914 FILLER_0_7_281
*915 FILLER_0_7_293
*916 FILLER_0_7_3
*917 FILLER_0_7_305
*918 FILLER_0_7_317
*919 FILLER_0_7_329
*920 FILLER_0_7_335
*921 FILLER_0_7_337
*922 FILLER_0_7_349
*923 FILLER_0_7_361
*924 FILLER_0_7_373
*925 FILLER_0_7_385
*926 FILLER_0_7_39
*927 FILLER_0_7_391
*928 FILLER_0_7_393
*929 FILLER_0_7_405
*930 FILLER_0_7_417
*931 FILLER_0_7_429
*932 FILLER_0_7_441
*933 FILLER_0_7_447
*934 FILLER_0_7_449
*935 FILLER_0_7_461
*936 FILLER_0_7_473
*937 FILLER_0_7_479
*938 FILLER_0_7_51
*939 FILLER_0_7_55
*940 FILLER_0_7_57
*941 FILLER_0_7_69
*942 FILLER_0_7_81
*943 FILLER_0_7_93
*944 FILLER_0_8_109
*945 FILLER_0_8_121
*946 FILLER_0_8_133
*947 FILLER_0_8_139
*948 FILLER_0_8_141
*949 FILLER_0_8_15
*950 FILLER_0_8_153
*951 FILLER_0_8_165
*952 FILLER_0_8_177
*953 FILLER_0_8_189
*954 FILLER_0_8_195
*955 FILLER_0_8_197
*956 FILLER_0_8_209
*957 FILLER_0_8_221
*958 FILLER_0_8_233
*959 FILLER_0_8_245
*960 FILLER_0_8_251
*961 FILLER_0_8_253
*962 FILLER_0_8_265
*963 FILLER_0_8_27
*964 FILLER_0_8_277
*965 FILLER_0_8_289
*966 FILLER_0_8_29
*967 FILLER_0_8_3
*968 FILLER_0_8_301
*969 FILLER_0_8_307
*970 FILLER_0_8_309
*971 FILLER_0_8_321
*972 FILLER_0_8_333
*973 FILLER_0_8_345
*974 FILLER_0_8_357
*975 FILLER_0_8_363
*976 FILLER_0_8_365
*977 FILLER_0_8_377
*978 FILLER_0_8_389
*979 FILLER_0_8_401
*980 FILLER_0_8_41
*981 FILLER_0_8_413
*982 FILLER_0_8_419
*983 FILLER_0_8_421
*984 FILLER_0_8_433
*985 FILLER_0_8_445
*986 FILLER_0_8_457
*987 FILLER_0_8_469
*988 FILLER_0_8_475
*989 FILLER_0_8_477
*990 FILLER_0_8_53
*991 FILLER_0_8_65
*992 FILLER_0_8_77
*993 FILLER_0_8_83
*994 FILLER_0_8_85
*995 FILLER_0_8_97
*996 FILLER_0_9_105
*997 FILLER_0_9_111
*998 FILLER_0_9_113
*999 FILLER_0_9_125
*1000 FILLER_0_9_137
*1001 FILLER_0_9_149
*1002 FILLER_0_9_15
*1003 FILLER_0_9_161
*1004 FILLER_0_9_167
*1005 FILLER_0_9_169
*1006 FILLER_0_9_181
*1007 FILLER_0_9_193
*1008 FILLER_0_9_205
*1009 FILLER_0_9_217
*1010 FILLER_0_9_223
*1011 FILLER_0_9_225
*1012 FILLER_0_9_237
*1013 FILLER_0_9_249
*1014 FILLER_0_9_261
*1015 FILLER_0_9_27
*1016 FILLER_0_9_273
*1017 FILLER_0_9_279
*1018 FILLER_0_9_281
*1019 FILLER_0_9_293
*1020 FILLER_0_9_3
*1021 FILLER_0_9_305
*1022 FILLER_0_9_317
*1023 FILLER_0_9_329
*1024 FILLER_0_9_335
*1025 FILLER_0_9_337
*1026 FILLER_0_9_349
*1027 FILLER_0_9_361
*1028 FILLER_0_9_373
*1029 FILLER_0_9_385
*1030 FILLER_0_9_39
*1031 FILLER_0_9_391
*1032 FILLER_0_9_393
*1033 FILLER_0_9_405
*1034 FILLER_0_9_417
*1035 FILLER_0_9_429
*1036 FILLER_0_9_441
*1037 FILLER_0_9_447
*1038 FILLER_0_9_449
*1039 FILLER_0_9_461
*1040 FILLER_0_9_473
*1041 FILLER_0_9_51
*1042 FILLER_0_9_55
*1043 FILLER_0_9_57
*1044 FILLER_0_9_69
*1045 FILLER_0_9_81
*1046 FILLER_0_9_93
*1047 Inst_S_term_single2_switch_matrix/_00_
*1048 Inst_S_term_single2_switch_matrix/_01_
*1049 Inst_S_term_single2_switch_matrix/_02_
*1050 Inst_S_term_single2_switch_matrix/_03_
*1051 Inst_S_term_single2_switch_matrix/_04_
*1052 Inst_S_term_single2_switch_matrix/_05_
*1053 Inst_S_term_single2_switch_matrix/_06_
*1054 Inst_S_term_single2_switch_matrix/_07_
*1055 Inst_S_term_single2_switch_matrix/_08_
*1056 Inst_S_term_single2_switch_matrix/_09_
*1057 Inst_S_term_single2_switch_matrix/_10_
*1058 Inst_S_term_single2_switch_matrix/_11_
*1059 Inst_S_term_single2_switch_matrix/_12_
*1060 Inst_S_term_single2_switch_matrix/_13_
*1061 Inst_S_term_single2_switch_matrix/_14_
*1062 Inst_S_term_single2_switch_matrix/_15_
*1063 Inst_S_term_single2_switch_matrix/_16_
*1064 Inst_S_term_single2_switch_matrix/_17_
*1065 Inst_S_term_single2_switch_matrix/_18_
*1066 Inst_S_term_single2_switch_matrix/_19_
*1067 Inst_S_term_single2_switch_matrix/_20_
*1068 Inst_S_term_single2_switch_matrix/_21_
*1069 Inst_S_term_single2_switch_matrix/_22_
*1070 Inst_S_term_single2_switch_matrix/_23_
*1071 Inst_S_term_single2_switch_matrix/_24_
*1072 Inst_S_term_single2_switch_matrix/_25_
*1073 Inst_S_term_single2_switch_matrix/_26_
*1074 Inst_S_term_single2_switch_matrix/_27_
*1075 Inst_S_term_single2_switch_matrix/_28_
*1076 Inst_S_term_single2_switch_matrix/_29_
*1077 Inst_S_term_single2_switch_matrix/_30_
*1078 Inst_S_term_single2_switch_matrix/_31_
*1079 Inst_S_term_single2_switch_matrix/_32_
*1080 Inst_S_term_single2_switch_matrix/_33_
*1081 Inst_S_term_single2_switch_matrix/_34_
*1082 Inst_S_term_single2_switch_matrix/_35_
*1083 Inst_S_term_single2_switch_matrix/_36_
*1084 Inst_S_term_single2_switch_matrix/_37_
*1085 Inst_S_term_single2_switch_matrix/_38_
*1086 Inst_S_term_single2_switch_matrix/_39_
*1087 Inst_S_term_single2_switch_matrix/_40_
*1088 Inst_S_term_single2_switch_matrix/_41_
*1089 Inst_S_term_single2_switch_matrix/_42_
*1090 Inst_S_term_single2_switch_matrix/_43_
*1091 Inst_S_term_single2_switch_matrix/_44_
*1092 Inst_S_term_single2_switch_matrix/_45_
*1093 Inst_S_term_single2_switch_matrix/_46_
*1094 Inst_S_term_single2_switch_matrix/_47_
*1095 Inst_S_term_single2_switch_matrix/_48_
*1096 Inst_S_term_single2_switch_matrix/_49_
*1097 Inst_S_term_single2_switch_matrix/_50_
*1098 Inst_S_term_single2_switch_matrix/_51_
*1099 PHY_0
*1100 PHY_1
*1101 PHY_10
*1102 PHY_11
*1103 PHY_12
*1104 PHY_13
*1105 PHY_14
*1106 PHY_15
*1107 PHY_16
*1108 PHY_17
*1109 PHY_18
*1110 PHY_19
*1111 PHY_2
*1112 PHY_20
*1113 PHY_21
*1114 PHY_22
*1115 PHY_23
*1116 PHY_24
*1117 PHY_25
*1118 PHY_26
*1119 PHY_27
*1120 PHY_3
*1121 PHY_4
*1122 PHY_5
*1123 PHY_6
*1124 PHY_7
*1125 PHY_8
*1126 PHY_9
*1127 TAP_100
*1128 TAP_101
*1129 TAP_102
*1130 TAP_103
*1131 TAP_104
*1132 TAP_105
*1133 TAP_106
*1134 TAP_107
*1135 TAP_108
*1136 TAP_109
*1137 TAP_110
*1138 TAP_111
*1139 TAP_112
*1140 TAP_113
*1141 TAP_114
*1142 TAP_115
*1143 TAP_116
*1144 TAP_117
*1145 TAP_118
*1146 TAP_119
*1147 TAP_120
*1148 TAP_121
*1149 TAP_122
*1150 TAP_123
*1151 TAP_124
*1152 TAP_125
*1153 TAP_126
*1154 TAP_127
*1155 TAP_128
*1156 TAP_129
*1157 TAP_130
*1158 TAP_131
*1159 TAP_132
*1160 TAP_133
*1161 TAP_134
*1162 TAP_135
*1163 TAP_136
*1164 TAP_137
*1165 TAP_138
*1166 TAP_139
*1167 TAP_140
*1168 TAP_141
*1169 TAP_142
*1170 TAP_143
*1171 TAP_144
*1172 TAP_145
*1173 TAP_146
*1174 TAP_147
*1175 TAP_148
*1176 TAP_149
*1177 TAP_150
*1178 TAP_151
*1179 TAP_152
*1180 TAP_153
*1181 TAP_154
*1182 TAP_155
*1183 TAP_156
*1184 TAP_157
*1185 TAP_158
*1186 TAP_159
*1187 TAP_160
*1188 TAP_161
*1189 TAP_162
*1190 TAP_163
*1191 TAP_28
*1192 TAP_29
*1193 TAP_30
*1194 TAP_31
*1195 TAP_32
*1196 TAP_33
*1197 TAP_34
*1198 TAP_35
*1199 TAP_36
*1200 TAP_37
*1201 TAP_38
*1202 TAP_39
*1203 TAP_40
*1204 TAP_41
*1205 TAP_42
*1206 TAP_43
*1207 TAP_44
*1208 TAP_45
*1209 TAP_46
*1210 TAP_47
*1211 TAP_48
*1212 TAP_49
*1213 TAP_50
*1214 TAP_51
*1215 TAP_52
*1216 TAP_53
*1217 TAP_54
*1218 TAP_55
*1219 TAP_56
*1220 TAP_57
*1221 TAP_58
*1222 TAP_59
*1223 TAP_60
*1224 TAP_61
*1225 TAP_62
*1226 TAP_63
*1227 TAP_64
*1228 TAP_65
*1229 TAP_66
*1230 TAP_67
*1231 TAP_68
*1232 TAP_69
*1233 TAP_70
*1234 TAP_71
*1235 TAP_72
*1236 TAP_73
*1237 TAP_74
*1238 TAP_75
*1239 TAP_76
*1240 TAP_77
*1241 TAP_78
*1242 TAP_79
*1243 TAP_80
*1244 TAP_81
*1245 TAP_82
*1246 TAP_83
*1247 TAP_84
*1248 TAP_85
*1249 TAP_86
*1250 TAP_87
*1251 TAP_88
*1252 TAP_89
*1253 TAP_90
*1254 TAP_91
*1255 TAP_92
*1256 TAP_93
*1257 TAP_94
*1258 TAP_95
*1259 TAP_96
*1260 TAP_97
*1261 TAP_98
*1262 TAP_99
*1263 input1
*1264 input10
*1265 input11
*1266 input12
*1267 input13
*1268 input14
*1269 input15
*1270 input16
*1271 input17
*1272 input18
*1273 input19
*1274 input2
*1275 input20
*1276 input21
*1277 input22
*1278 input23
*1279 input24
*1280 input25
*1281 input26
*1282 input27
*1283 input28
*1284 input29
*1285 input3
*1286 input30
*1287 input31
*1288 input32
*1289 input33
*1290 input34
*1291 input35
*1292 input36
*1293 input37
*1294 input38
*1295 input39
*1296 input4
*1297 input40
*1298 input41
*1299 input42
*1300 input43
*1301 input44
*1302 input45
*1303 input46
*1304 input47
*1305 input48
*1306 input49
*1307 input5
*1308 input50
*1309 input51
*1310 input52
*1311 input53
*1312 input54
*1313 input55
*1314 input56
*1315 input57
*1316 input58
*1317 input59
*1318 input6
*1319 input60
*1320 input61
*1321 input62
*1322 input63
*1323 input64
*1324 input65
*1325 input66
*1326 input67
*1327 input68
*1328 input69
*1329 input7
*1330 input70
*1331 input71
*1332 input72
*1333 input73
*1334 input8
*1335 input9
*1336 inst_clk_buf
*1337 output100
*1338 output101
*1339 output102
*1340 output103
*1341 output104
*1342 output105
*1343 output106
*1344 output107
*1345 output108
*1346 output109
*1347 output110
*1348 output111
*1349 output112
*1350 output113
*1351 output114
*1352 output115
*1353 output116
*1354 output117
*1355 output118
*1356 output119
*1357 output120
*1358 output121
*1359 output122
*1360 output123
*1361 output124
*1362 output125
*1363 output126
*1364 output127
*1365 output128
*1366 output129
*1367 output130
*1368 output131
*1369 output132
*1370 output133
*1371 output134
*1372 output135
*1373 output136
*1374 output137
*1375 output138
*1376 output139
*1377 output140
*1378 output141
*1379 output142
*1380 output143
*1381 output144
*1382 output145
*1383 output146
*1384 output74
*1385 output75
*1386 output76
*1387 output77
*1388 output78
*1389 output79
*1390 output80
*1391 output81
*1392 output82
*1393 output83
*1394 output84
*1395 output85
*1396 output86
*1397 output87
*1398 output88
*1399 output89
*1400 output90
*1401 output91
*1402 output92
*1403 output93
*1404 output94
*1405 output95
*1406 output96
*1407 output97
*1408 output98
*1409 output99
*1410 strobe_inbuf_0/_0_
*1411 strobe_inbuf_1/_0_
*1412 strobe_inbuf_10/_0_
*1413 strobe_inbuf_11/_0_
*1414 strobe_inbuf_12/_0_
*1415 strobe_inbuf_13/_0_
*1416 strobe_inbuf_14/_0_
*1417 strobe_inbuf_15/_0_
*1418 strobe_inbuf_16/_0_
*1419 strobe_inbuf_17/_0_
*1420 strobe_inbuf_18/_0_
*1421 strobe_inbuf_19/_0_
*1422 strobe_inbuf_2/_0_
*1423 strobe_inbuf_3/_0_
*1424 strobe_inbuf_4/_0_
*1425 strobe_inbuf_5/_0_
*1426 strobe_inbuf_6/_0_
*1427 strobe_inbuf_7/_0_
*1428 strobe_inbuf_8/_0_
*1429 strobe_inbuf_9/_0_
*1430 strobe_outbuf_0/_0_
*1431 strobe_outbuf_1/_0_
*1432 strobe_outbuf_10/_0_
*1433 strobe_outbuf_11/_0_
*1434 strobe_outbuf_12/_0_
*1435 strobe_outbuf_13/_0_
*1436 strobe_outbuf_14/_0_
*1437 strobe_outbuf_15/_0_
*1438 strobe_outbuf_16/_0_
*1439 strobe_outbuf_17/_0_
*1440 strobe_outbuf_18/_0_
*1441 strobe_outbuf_19/_0_
*1442 strobe_outbuf_2/_0_
*1443 strobe_outbuf_3/_0_
*1444 strobe_outbuf_4/_0_
*1445 strobe_outbuf_5/_0_
*1446 strobe_outbuf_6/_0_
*1447 strobe_outbuf_7/_0_
*1448 strobe_outbuf_8/_0_
*1449 strobe_outbuf_9/_0_

*PORTS
FrameStrobe[0] I
FrameStrobe[10] I
FrameStrobe[11] I
FrameStrobe[12] I
FrameStrobe[13] I
FrameStrobe[14] I
FrameStrobe[15] I
FrameStrobe[16] I
FrameStrobe[17] I
FrameStrobe[18] I
FrameStrobe[19] I
FrameStrobe[1] I
FrameStrobe[2] I
FrameStrobe[3] I
FrameStrobe[4] I
FrameStrobe[5] I
FrameStrobe[6] I
FrameStrobe[7] I
FrameStrobe[8] I
FrameStrobe[9] I
FrameStrobe_O[0] O
FrameStrobe_O[10] O
FrameStrobe_O[11] O
FrameStrobe_O[12] O
FrameStrobe_O[13] O
FrameStrobe_O[14] O
FrameStrobe_O[15] O
FrameStrobe_O[16] O
FrameStrobe_O[17] O
FrameStrobe_O[18] O
FrameStrobe_O[19] O
FrameStrobe_O[1] O
FrameStrobe_O[2] O
FrameStrobe_O[3] O
FrameStrobe_O[4] O
FrameStrobe_O[5] O
FrameStrobe_O[6] O
FrameStrobe_O[7] O
FrameStrobe_O[8] O
FrameStrobe_O[9] O
N1BEG[0] O
N1BEG[1] O
N1BEG[2] O
N1BEG[3] O
N2BEG[0] O
N2BEG[1] O
N2BEG[2] O
N2BEG[3] O
N2BEG[4] O
N2BEG[5] O
N2BEG[6] O
N2BEG[7] O
N2BEGb[0] O
N2BEGb[1] O
N2BEGb[2] O
N2BEGb[3] O
N2BEGb[4] O
N2BEGb[5] O
N2BEGb[6] O
N2BEGb[7] O
N4BEG[0] O
N4BEG[10] O
N4BEG[11] O
N4BEG[12] O
N4BEG[13] O
N4BEG[14] O
N4BEG[15] O
N4BEG[1] O
N4BEG[2] O
N4BEG[3] O
N4BEG[4] O
N4BEG[5] O
N4BEG[6] O
N4BEG[7] O
N4BEG[8] O
N4BEG[9] O
NN4BEG[0] O
NN4BEG[10] O
NN4BEG[11] O
NN4BEG[12] O
NN4BEG[13] O
NN4BEG[14] O
NN4BEG[15] O
NN4BEG[1] O
NN4BEG[2] O
NN4BEG[3] O
NN4BEG[4] O
NN4BEG[5] O
NN4BEG[6] O
NN4BEG[7] O
NN4BEG[8] O
NN4BEG[9] O
S1END[0] I
S1END[1] I
S1END[2] I
S1END[3] I
S2END[0] I
S2END[1] I
S2END[2] I
S2END[3] I
S2END[4] I
S2END[5] I
S2END[6] I
S2END[7] I
S2MID[0] I
S2MID[1] I
S2MID[2] I
S2MID[3] I
S2MID[4] I
S2MID[5] I
S2MID[6] I
S2MID[7] I
S4END[0] I
S4END[10] I
S4END[11] I
S4END[12] I
S4END[13] I
S4END[14] I
S4END[15] I
S4END[1] I
S4END[2] I
S4END[3] I
S4END[4] I
S4END[5] I
S4END[6] I
S4END[7] I
S4END[8] I
S4END[9] I
SS4END[0] I
SS4END[10] I
SS4END[11] I
SS4END[12] I
SS4END[13] I
SS4END[14] I
SS4END[15] I
SS4END[1] I
SS4END[2] I
SS4END[3] I
SS4END[4] I
SS4END[5] I
SS4END[6] I
SS4END[7] I
SS4END[8] I
SS4END[9] I
UserCLK I
UserCLKo O

*D_NET *1 0.000765699
*CONN
*P FrameStrobe[0] I
*I *1263:A I *D sky130_fd_sc_hd__buf_1
*CAP
1 FrameStrobe[0] 0.000362054
2 *1263:A 0.000362054
3 *1263:A *169:14 4.15914e-05
*RES
1 FrameStrobe[0] *1263:A 21.2464 
*END

*D_NET *2 0.000727126
*CONN
*P FrameStrobe[10] I
*I *1274:A I *D sky130_fd_sc_hd__clkbuf_1
*CAP
1 FrameStrobe[10] 0.000363563
2 *1274:A 0.000363563
3 *1274:A *1412:A 0
*RES
1 FrameStrobe[10] *1274:A 20.8357 
*END

*D_NET *3 0.000714238
*CONN
*P FrameStrobe[11] I
*I *1285:A I *D sky130_fd_sc_hd__clkbuf_1
*CAP
1 FrameStrobe[11] 0.000357119
2 *1285:A 0.000357119
*RES
1 FrameStrobe[11] *1285:A 20.8357 
*END

*D_NET *4 0.000727126
*CONN
*P FrameStrobe[12] I
*I *1296:A I *D sky130_fd_sc_hd__clkbuf_1
*CAP
1 FrameStrobe[12] 0.000363563
2 *1296:A 0.000363563
3 *1296:A *1414:A 0
*RES