*SPEF "ieee 1481-1999"
*DESIGN "BlockRAM_1KB"
*DATE "11:11:11 Fri 11 11, 1111"
*VENDOR "OpenRCX"
*PROGRAM "Parallel Extraction"
*VERSION "1.0"
*DESIGN_FLOW "NAME_SCOPE LOCAL" "PIN_CAP NONE"
*DIVIDER /
*DELIMITER :
*BUS_DELIMITER []
*T_UNIT 1 NS
*C_UNIT 1 PF
*R_UNIT 1 OHM
*L_UNIT 1 HENRY

*NAME_MAP
*1 C0
*2 C1
*3 C2
*4 C3
*5 C4
*6 C5
*7 clk
*8 rd_addr[0]
*9 rd_addr[1]
*10 rd_addr[2]
*11 rd_addr[3]
*12 rd_addr[4]
*13 rd_addr[5]
*14 rd_addr[6]
*15 rd_addr[7]
*16 rd_data[0]
*17 rd_data[10]
*18 rd_data[11]
*19 rd_data[12]
*20 rd_data[13]
*21 rd_data[14]
*22 rd_data[15]
*23 rd_data[16]
*24 rd_data[17]
*25 rd_data[18]
*26 rd_data[19]
*27 rd_data[1]
*28 rd_data[20]
*29 rd_data[21]
*30 rd_data[22]
*31 rd_data[23]
*32 rd_data[24]
*33 rd_data[25]
*34 rd_data[26]
*35 rd_data[27]
*36 rd_data[28]
*37 rd_data[29]
*38 rd_data[2]
*39 rd_data[30]
*40 rd_data[31]
*41 rd_data[3]
*42 rd_data[4]
*43 rd_data[5]
*44 rd_data[6]
*45 rd_data[7]
*46 rd_data[8]
*47 rd_data[9]
*50 wr_addr[0]
*51 wr_addr[1]
*52 wr_addr[2]
*53 wr_addr[3]
*54 wr_addr[4]
*55 wr_addr[5]
*56 wr_addr[6]
*57 wr_addr[7]
*58 wr_data[0]
*59 wr_data[10]
*60 wr_data[11]
*61 wr_data[12]
*62 wr_data[13]
*63 wr_data[14]
*64 wr_data[15]
*65 wr_data[16]
*66 wr_data[17]
*67 wr_data[18]
*68 wr_data[19]
*69 wr_data[1]
*70 wr_data[20]
*71 wr_data[21]
*72 wr_data[22]
*73 wr_data[23]
*74 wr_data[24]
*75 wr_data[25]
*76 wr_data[26]
*77 wr_data[27]
*78 wr_data[28]
*79 wr_data[29]
*80 wr_data[2]
*81 wr_data[30]
*82 wr_data[31]
*83 wr_data[3]
*84 wr_data[4]
*85 wr_data[5]
*86 wr_data[6]
*87 wr_data[7]
*88 wr_data[8]
*89 wr_data[9]
*90 _000_
*91 _001_
*92 _002_
*93 _003_
*94 _004_
*95 _005_
*96 _006_
*97 _007_
*98 _008_
*99 _009_
*100 _010_
*101 _011_
*102 _012_
*103 _013_
*104 _014_
*105 _015_
*106 _016_
*107 _017_
*108 _018_
*109 _019_
*110 _020_
*111 _021_
*112 _022_
*113 _023_
*114 _024_
*115 _025_
*116 _026_
*117 _027_
*118 _028_
*119 _029_
*120 _030_
*121 _031_
*122 _032_
*123 _033_
*124 _034_
*125 _035_
*126 _036_
*127 _037_
*128 _038_
*129 _039_
*130 _040_
*131 _041_
*132 _042_
*133 _043_
*134 _044_
*135 _045_
*136 _046_
*137 _047_
*138 _048_
*139 _049_
*140 _050_
*141 _051_
*142 _052_
*143 _053_
*144 _054_
*145 _055_
*146 _056_
*147 _057_
*148 _058_
*149 _059_
*150 _060_
*151 _061_
*152 _062_
*153 _063_
*154 _064_
*155 _065_
*156 _066_
*157 _067_
*158 _068_
*159 _069_
*160 _070_
*161 _071_
*162 _072_
*163 _073_
*164 _074_
*165 _075_
*166 _076_
*167 _077_
*168 _078_
*169 _079_
*170 _080_
*171 _081_
*172 _082_
*173 _083_
*174 _084_
*175 _085_
*176 _086_
*177 _087_
*178 _088_
*179 _089_
*180 _090_
*181 _091_
*182 _092_
*183 _093_
*184 _094_
*185 _095_
*186 _096_
*187 _097_
*188 _098_
*189 _099_
*190 _100_
*191 _101_
*192 _102_
*193 _103_
*194 _104_
*195 _105_
*196 _106_
*197 _107_
*198 _108_
*199 _109_
*200 _110_
*201 _111_
*202 _112_
*203 _113_
*204 _114_
*205 _115_
*206 _116_
*207 _117_
*208 _118_
*209 _119_
*210 _120_
*211 _121_
*212 _122_
*213 _123_
*214 _124_
*215 _125_
*216 _126_
*217 _127_
*218 _128_
*219 _129_
*220 _130_
*221 _131_
*222 _132_
*223 _133_
*224 _134_
*225 _135_
*226 _136_
*227 _137_
*228 _138_
*229 _139_
*230 _140_
*231 _141_
*232 _142_
*233 _143_
*234 _144_
*235 _145_
*236 _146_
*237 _147_
*238 _148_
*239 _149_
*240 _150_
*241 _151_
*242 _152_
*243 _153_
*244 _154_
*245 _155_
*246 _156_
*247 _157_
*248 _158_
*249 _159_
*250 _160_
*251 _161_
*252 _162_
*253 _163_
*254 _164_
*255 _165_
*256 _166_
*257 _167_
*258 _168_
*259 _169_
*260 _170_
*261 _171_
*262 clknet_0_clk
*263 clknet_2_0__leaf_clk
*264 clknet_2_1__leaf_clk
*265 clknet_2_2__leaf_clk
*266 clknet_2_3__leaf_clk
*267 memWriteEnable
*268 mem_dout\[0\]
*269 mem_dout\[10\]
*270 mem_dout\[11\]
*271 mem_dout\[12\]
*272 mem_dout\[13\]
*273 mem_dout\[14\]
*274 mem_dout\[15\]
*275 mem_dout\[16\]
*276 mem_dout\[17\]
*277 mem_dout\[18\]
*278 mem_dout\[19\]
*279 mem_dout\[1\]
*280 mem_dout\[20\]
*281 mem_dout\[21\]
*282 mem_dout\[22\]
*283 mem_dout\[23\]
*284 mem_dout\[24\]
*285 mem_dout\[25\]
*286 mem_dout\[26\]
*287 mem_dout\[27\]
*288 mem_dout\[28\]
*289 mem_dout\[29\]
*290 mem_dout\[2\]
*291 mem_dout\[30\]
*292 mem_dout\[31\]
*293 mem_dout\[3\]
*294 mem_dout\[4\]
*295 mem_dout\[5\]
*296 mem_dout\[6\]
*297 mem_dout\[7\]
*298 mem_dout\[8\]
*299 mem_dout\[9\]
*300 mem_wr_mask\[0\]
*301 mem_wr_mask\[1\]
*302 mem_wr_mask\[2\]
*303 mem_wr_mask\[3\]
*304 muxedDataIn\[10\]
*305 muxedDataIn\[11\]
*306 muxedDataIn\[12\]
*307 muxedDataIn\[13\]
*308 muxedDataIn\[14\]
*309 muxedDataIn\[15\]
*310 muxedDataIn\[16\]
*311 muxedDataIn\[17\]
*312 muxedDataIn\[18\]
*313 muxedDataIn\[19\]
*314 muxedDataIn\[20\]
*315 muxedDataIn\[21\]
*316 muxedDataIn\[22\]
*317 muxedDataIn\[23\]
*318 muxedDataIn\[24\]
*319 muxedDataIn\[25\]
*320 muxedDataIn\[26\]
*321 muxedDataIn\[27\]
*322 muxedDataIn\[28\]
*323 muxedDataIn\[29\]
*324 muxedDataIn\[30\]
*325 muxedDataIn\[31\]
*326 muxedDataIn\[8\]
*327 muxedDataIn\[9\]
*328 net1
*329 net10
*330 net11
*331 net12
*332 net13
*333 net14
*334 net15
*335 net16
*336 net17
*337 net18
*338 net19
*339 net2
*340 net20
*341 net21
*342 net22
*343 net23
*344 net24
*345 net25
*346 net26
*347 net27
*348 net28
*349 net29
*350 net3
*351 net30
*352 net31
*353 net32
*354 net33
*355 net34
*356 net35
*357 net36
*358 net37
*359 net38
*360 net39
*361 net4
*362 net40
*363 net41
*364 net42
*365 net43
*366 net44
*367 net45
*368 net46
*369 net47
*370 net48
*371 net49
*372 net5
*373 net50
*374 net51
*375 net52
*376 net53
*377 net54
*378 net55
*379 net56
*380 net57
*381 net58
*382 net59
*383 net6
*384 net60
*385 net61
*386 net62
*387 net63
*388 net64
*389 net65
*390 net66
*391 net67
*392 net68
*393 net69
*394 net7
*395 net70
*396 net71
*397 net72
*398 net73
*399 net74
*400 net75
*401 net76
*402 net77
*403 net78
*404 net79
*405 net8
*406 net80
*407 net81
*408 net82
*409 net83
*410 net84
*411 net85
*412 net86
*413 net87
*414 net9
*415 rd_dout_additional_register\[0\]
*416 rd_dout_additional_register\[10\]
*417 rd_dout_additional_register\[11\]
*418 rd_dout_additional_register\[12\]
*419 rd_dout_additional_register\[13\]
*420 rd_dout_additional_register\[14\]
*421 rd_dout_additional_register\[15\]
*422 rd_dout_additional_register\[16\]
*423 rd_dout_additional_register\[17\]
*424 rd_dout_additional_register\[18\]
*425 rd_dout_additional_register\[19\]
*426 rd_dout_additional_register\[1\]
*427 rd_dout_additional_register\[20\]
*428 rd_dout_additional_register\[21\]
*429 rd_dout_additional_register\[22\]
*430 rd_dout_additional_register\[23\]
*431 rd_dout_additional_register\[24\]
*432 rd_dout_additional_register\[25\]
*433 rd_dout_additional_register\[26\]
*434 rd_dout_additional_register\[27\]
*435 rd_dout_additional_register\[28\]
*436 rd_dout_additional_register\[29\]
*437 rd_dout_additional_register\[2\]
*438 rd_dout_additional_register\[30\]
*439 rd_dout_additional_register\[31\]
*440 rd_dout_additional_register\[3\]
*441 rd_dout_additional_register\[4\]
*442 rd_dout_additional_register\[5\]
*443 rd_dout_additional_register\[6\]
*444 rd_dout_additional_register\[7\]
*445 rd_dout_additional_register\[8\]
*446 rd_dout_additional_register\[9\]
*447 rd_dout_muxed\[0\]
*448 rd_dout_muxed\[10\]
*449 rd_dout_muxed\[11\]
*450 rd_dout_muxed\[12\]
*451 rd_dout_muxed\[13\]
*452 rd_dout_muxed\[14\]
*453 rd_dout_muxed\[15\]
*454 rd_dout_muxed\[1\]
*455 rd_dout_muxed\[2\]
*456 rd_dout_muxed\[3\]
*457 rd_dout_muxed\[4\]
*458 rd_dout_muxed\[5\]
*459 rd_dout_muxed\[6\]
*460 rd_dout_muxed\[7\]
*461 rd_dout_muxed\[8\]
*462 rd_dout_muxed\[9\]
*463 rd_dout_sel\[0\]
*464 rd_dout_sel\[1\]
*465 ANTENNA_1
*466 ANTENNA_10
*467 ANTENNA_11
*468 ANTENNA_12
*469 ANTENNA_13
*470 ANTENNA_14
*471 ANTENNA_15
*472 ANTENNA_16
*473 ANTENNA_17
*474 ANTENNA_18
*475 ANTENNA_19
*476 ANTENNA_2
*477 ANTENNA_20
*478 ANTENNA_21
*479 ANTENNA_22
*480 ANTENNA_23
*481 ANTENNA_24
*482 ANTENNA_25
*483 ANTENNA_26
*484 ANTENNA_27
*485 ANTENNA_28
*486 ANTENNA_29
*487 ANTENNA_3
*488 ANTENNA_30
*489 ANTENNA_31
*490 ANTENNA_32
*491 ANTENNA_33
*492 ANTENNA_34
*493 ANTENNA_35
*494 ANTENNA_36
*495 ANTENNA_4
*496 ANTENNA_5
*497 ANTENNA_6
*498 ANTENNA_7
*499 ANTENNA_8
*500 ANTENNA_9
*501 FILLER_0_0_1005
*502 FILLER_0_0_1009
*503 FILLER_0_0_1021
*504 FILLER_0_0_1033
*505 FILLER_0_0_1037
*506 FILLER_0_0_1049
*507 FILLER_0_0_1061
*508 FILLER_0_0_1065
*509 FILLER_0_0_1077
*510 FILLER_0_0_1089
*511 FILLER_0_0_109
*512 FILLER_0_0_1093
*513 FILLER_0_0_1105
*514 FILLER_0_0_1117
*515 FILLER_0_0_1121
*516 FILLER_0_0_113
*517 FILLER_0_0_1133
*518 FILLER_0_0_1145
*519 FILLER_0_0_1149
*520 FILLER_0_0_1161
*521 FILLER_0_0_1167
*522 FILLER_0_0_125
*523 FILLER_0_0_137
*524 FILLER_0_0_141
*525 FILLER_0_0_15
*526 FILLER_0_0_153
*527 FILLER_0_0_165
*528 FILLER_0_0_169
*529 FILLER_0_0_181
*530 FILLER_0_0_193
*531 FILLER_0_0_197
*532 FILLER_0_0_209
*533 FILLER_0_0_221
*534 FILLER_0_0_225
*535 FILLER_0_0_233
*536 FILLER_0_0_243
*537 FILLER_0_0_251
*538 FILLER_0_0_257
*539 FILLER_0_0_269
*540 FILLER_0_0_27
*541 FILLER_0_0_275
*542 FILLER_0_0_279
*543 FILLER_0_0_285
*544 FILLER_0_0_29
*545 FILLER_0_0_3
*546 FILLER_0_0_300
*547 FILLER_0_0_313
*548 FILLER_0_0_317
*549 FILLER_0_0_323
*550 FILLER_0_0_335
*551 FILLER_0_0_347
*552 FILLER_0_0_363
*553 FILLER_0_0_375
*554 FILLER_0_0_379
*555 FILLER_0_0_391
*556 FILLER_0_0_393
*557 FILLER_0_0_405
*558 FILLER_0_0_409
*559 FILLER_0_0_41
*560 FILLER_0_0_417
*561 FILLER_0_0_421
*562 FILLER_0_0_433
*563 FILLER_0_0_445
*564 FILLER_0_0_449
*565 FILLER_0_0_461
*566 FILLER_0_0_473
*567 FILLER_0_0_477
*568 FILLER_0_0_489
*569 FILLER_0_0_501
*570 FILLER_0_0_505
*571 FILLER_0_0_517
*572 FILLER_0_0_529
*573 FILLER_0_0_53
*574 FILLER_0_0_533
*575 FILLER_0_0_545
*576 FILLER_0_0_557
*577 FILLER_0_0_561
*578 FILLER_0_0_57
*579 FILLER_0_0_573
*580 FILLER_0_0_585
*581 FILLER_0_0_589
*582 FILLER_0_0_601
*583 FILLER_0_0_613
*584 FILLER_0_0_617
*585 FILLER_0_0_629
*586 FILLER_0_0_641
*587 FILLER_0_0_645
*588 FILLER_0_0_657
*589 FILLER_0_0_669
*590 FILLER_0_0_673
*591 FILLER_0_0_685
*592 FILLER_0_0_69
*593 FILLER_0_0_697
*594 FILLER_0_0_701
*595 FILLER_0_0_713
*596 FILLER_0_0_725
*597 FILLER_0_0_729
*598 FILLER_0_0_741
*599 FILLER_0_0_753
*600 FILLER_0_0_757
*601 FILLER_0_0_769
*602 FILLER_0_0_781
*603 FILLER_0_0_785
*604 FILLER_0_0_797
*605 FILLER_0_0_809
*606 FILLER_0_0_81
*607 FILLER_0_0_813
*608 FILLER_0_0_825
*609 FILLER_0_0_837
*610 FILLER_0_0_841
*611 FILLER_0_0_85
*612 FILLER_0_0_853
*613 FILLER_0_0_865
*614 FILLER_0_0_869
*615 FILLER_0_0_881
*616 FILLER_0_0_893
*617 FILLER_0_0_897
*618 FILLER_0_0_909
*619 FILLER_0_0_921
*620 FILLER_0_0_925
*621 FILLER_0_0_937
*622 FILLER_0_0_949
*623 FILLER_0_0_953
*624 FILLER_0_0_965
*625 FILLER_0_0_97
*626 FILLER_0_0_977
*627 FILLER_0_0_981
*628 FILLER_0_0_993
*629 FILLER_0_100_15
*630 FILLER_0_100_27
*631 FILLER_0_100_29
*632 FILLER_0_100_3
*633 FILLER_0_100_35
*634 FILLER_0_100_47
*635 FILLER_0_100_59
*636 FILLER_0_100_63
*637 FILLER_0_100_74
*638 FILLER_0_100_82
*639 FILLER_0_100_85
*640 FILLER_0_101_21
*641 FILLER_0_101_33
*642 FILLER_0_101_40
*643 FILLER_0_101_52
*644 FILLER_0_101_57
*645 FILLER_0_101_65
*646 FILLER_0_101_72
*647 FILLER_0_101_84
*648 FILLER_0_101_9
*649 FILLER_0_101_92
*650 FILLER_0_102_21
*651 FILLER_0_102_27
*652 FILLER_0_102_29
*653 FILLER_0_102_36
*654 FILLER_0_102_48
*655 FILLER_0_102_60
*656 FILLER_0_102_68
*657 FILLER_0_102_73
*658 FILLER_0_102_81
*659 FILLER_0_102_85
*660 FILLER_0_102_9
*661 FILLER_0_103_15
*662 FILLER_0_103_27
*663 FILLER_0_103_3
*664 FILLER_0_103_40
*665 FILLER_0_103_52
*666 FILLER_0_103_78
*667 FILLER_0_103_90
*668 FILLER_0_104_21
*669 FILLER_0_104_27
*670 FILLER_0_104_29
*671 FILLER_0_104_41
*672 FILLER_0_104_53
*673 FILLER_0_104_61
*674 FILLER_0_104_88
*675 FILLER_0_104_9
*676 FILLER_0_104_92
*677 FILLER_0_105_15
*678 FILLER_0_105_27
*679 FILLER_0_105_3
*680 FILLER_0_105_39
*681 FILLER_0_105_51
*682 FILLER_0_105_57
*683 FILLER_0_105_69
*684 FILLER_0_105_84
*685 FILLER_0_105_92
*686 FILLER_0_106_21
*687 FILLER_0_106_27
*688 FILLER_0_106_29
*689 FILLER_0_106_41
*690 FILLER_0_106_63
*691 FILLER_0_106_81
*692 FILLER_0_106_85
*693 FILLER_0_106_9
*694 FILLER_0_107_15
*695 FILLER_0_107_27
*696 FILLER_0_107_3
*697 FILLER_0_107_32
*698 FILLER_0_107_36
*699 FILLER_0_107_40
*700 FILLER_0_107_46
*701 FILLER_0_107_54
*702 FILLER_0_107_57
*703 FILLER_0_107_69
*704 FILLER_0_108_21
*705 FILLER_0_108_27
*706 FILLER_0_108_29
*707 FILLER_0_108_41
*708 FILLER_0_108_53
*709 FILLER_0_108_65
*710 FILLER_0_108_83
*711 FILLER_0_108_85
*712 FILLER_0_108_9
*713 FILLER_0_109_18
*714 FILLER_0_109_30
*715 FILLER_0_109_45
*716 FILLER_0_109_53
*717 FILLER_0_109_57
*718 FILLER_0_109_6
*719 FILLER_0_109_77
*720 FILLER_0_109_89
*721 FILLER_0_10_21
*722 FILLER_0_10_27
*723 FILLER_0_10_29
*724 FILLER_0_10_41
*725 FILLER_0_10_53
*726 FILLER_0_10_65
*727 FILLER_0_10_77
*728 FILLER_0_10_83
*729 FILLER_0_10_85
*730 FILLER_0_10_9
*731 FILLER_0_110_15
*732 FILLER_0_110_27
*733 FILLER_0_110_29
*734 FILLER_0_110_3
*735 FILLER_0_110_41
*736 FILLER_0_110_53
*737 FILLER_0_110_65
*738 FILLER_0_110_88
*739 FILLER_0_110_92
*740 FILLER_0_111_19
*741 FILLER_0_111_31
*742 FILLER_0_111_43
*743 FILLER_0_111_55
*744 FILLER_0_111_57
*745 FILLER_0_111_7
*746 FILLER_0_111_85
*747 FILLER_0_112_14
*748 FILLER_0_112_26
*749 FILLER_0_112_29
*750 FILLER_0_112_3
*751 FILLER_0_112_41
*752 FILLER_0_112_53
*753 FILLER_0_112_59
*754 FILLER_0_112_81
*755 FILLER_0_112_85
*756 FILLER_0_113_21
*757 FILLER_0_113_33
*758 FILLER_0_113_39
*759 FILLER_0_113_44
*760 FILLER_0_113_57
*761 FILLER_0_113_87
*762 FILLER_0_113_9
*763 FILLER_0_114_15
*764 FILLER_0_114_27
*765 FILLER_0_114_29
*766 FILLER_0_114_3
*767 FILLER_0_114_41
*768 FILLER_0_114_53
*769 FILLER_0_114_57
*770 FILLER_0_114_67
*771 FILLER_0_114_73
*772 FILLER_0_114_85
*773 FILLER_0_115_19
*774 FILLER_0_115_31
*775 FILLER_0_115_43
*776 FILLER_0_115_55
*777 FILLER_0_115_57
*778 FILLER_0_115_7
*779 FILLER_0_115_74
*780 FILLER_0_115_78
*781 FILLER_0_115_89
*782 FILLER_0_116_19
*783 FILLER_0_116_27
*784 FILLER_0_116_29
*785 FILLER_0_116_41
*786 FILLER_0_116_49
*787 FILLER_0_116_66
*788 FILLER_0_116_7
*789 FILLER_0_116_74
*790 FILLER_0_116_85
*791 FILLER_0_117_15
*792 FILLER_0_117_27
*793 FILLER_0_117_3
*794 FILLER_0_117_33
*795 FILLER_0_117_40
*796 FILLER_0_117_44
*797 FILLER_0_117_55
*798 FILLER_0_117_57
*799 FILLER_0_117_78
*800 FILLER_0_117_82
*801 FILLER_0_118_19
*802 FILLER_0_118_27
*803 FILLER_0_118_29
*804 FILLER_0_118_41
*805 FILLER_0_118_50
*806 FILLER_0_118_68
*807 FILLER_0_118_7
*808 FILLER_0_118_80
*809 FILLER_0_118_85
*810 FILLER_0_119_15
*811 FILLER_0_119_27
*812 FILLER_0_119_3
*813 FILLER_0_119_39
*814 FILLER_0_119_43
*815 FILLER_0_119_57
*816 FILLER_0_119_65
*817 FILLER_0_119_85
*818 FILLER_0_11_21
*819 FILLER_0_11_33
*820 FILLER_0_11_45
*821 FILLER_0_11_53
*822 FILLER_0_11_57
*823 FILLER_0_11_69
*824 FILLER_0_11_81
*825 FILLER_0_11_9
*826 FILLER_0_120_19
*827 FILLER_0_120_27
*828 FILLER_0_120_29
*829 FILLER_0_120_37
*830 FILLER_0_120_43
*831 FILLER_0_120_51
*832 FILLER_0_120_64
*833 FILLER_0_120_7
*834 FILLER_0_121_15
*835 FILLER_0_121_27
*836 FILLER_0_121_3
*837 FILLER_0_121_33
*838 FILLER_0_121_57
*839 FILLER_0_121_67
*840 FILLER_0_121_71
*841 FILLER_0_121_91
*842 FILLER_0_122_19
*843 FILLER_0_122_27
*844 FILLER_0_122_29
*845 FILLER_0_122_43
*846 FILLER_0_122_55
*847 FILLER_0_122_63
*848 FILLER_0_122_69
*849 FILLER_0_122_7
*850 FILLER_0_122_79
*851 FILLER_0_122_83
*852 FILLER_0_122_85
*853 FILLER_0_123_19
*854 FILLER_0_123_31
*855 FILLER_0_123_39
*856 FILLER_0_123_43
*857 FILLER_0_123_55
*858 FILLER_0_123_57
*859 FILLER_0_123_69
*860 FILLER_0_123_7
*861 FILLER_0_123_81
*862 FILLER_0_124_15
*863 FILLER_0_124_27
*864 FILLER_0_124_29
*865 FILLER_0_124_3
*866 FILLER_0_124_51
*867 FILLER_0_124_55
*868 FILLER_0_124_75
*869 FILLER_0_124_79
*870 FILLER_0_124_83
*871 FILLER_0_124_88
*872 FILLER_0_124_92
*873 FILLER_0_125_19
*874 FILLER_0_125_31
*875 FILLER_0_125_43
*876 FILLER_0_125_55
*877 FILLER_0_125_66
*878 FILLER_0_125_7
*879 FILLER_0_125_72
*880 FILLER_0_125_91
*881 FILLER_0_126_15
*882 FILLER_0_126_27
*883 FILLER_0_126_29
*884 FILLER_0_126_3
*885 FILLER_0_126_41
*886 FILLER_0_126_45
*887 FILLER_0_126_81
*888 FILLER_0_126_85
*889 FILLER_0_126_89
*890 FILLER_0_127_19
*891 FILLER_0_127_31
*892 FILLER_0_127_43
*893 FILLER_0_127_55
*894 FILLER_0_127_57
*895 FILLER_0_127_61
*896 FILLER_0_127_7
*897 FILLER_0_127_70
*898 FILLER_0_127_79
*899 FILLER_0_128_15
*900 FILLER_0_128_27
*901 FILLER_0_128_29
*902 FILLER_0_128_3
*903 FILLER_0_128_41
*904 FILLER_0_128_53
*905 FILLER_0_128_69
*906 FILLER_0_128_73
*907 FILLER_0_128_91
*908 FILLER_0_129_19
*909 FILLER_0_129_31
*910 FILLER_0_129_43
*911 FILLER_0_129_55
*912 FILLER_0_129_7
*913 FILLER_0_129_81
*914 FILLER_0_12_15
*915 FILLER_0_12_27
*916 FILLER_0_12_29
*917 FILLER_0_12_3
*918 FILLER_0_12_41
*919 FILLER_0_12_53
*920 FILLER_0_12_65
*921 FILLER_0_12_77
*922 FILLER_0_12_83
*923 FILLER_0_12_85
*924 FILLER_0_130_19
*925 FILLER_0_130_27
*926 FILLER_0_130_29
*927 FILLER_0_130_41
*928 FILLER_0_130_45
*929 FILLER_0_130_56
*930 FILLER_0_130_7
*931 FILLER_0_130_74
*932 FILLER_0_130_79
*933 FILLER_0_130_83
*934 FILLER_0_130_85
*935 FILLER_0_131_15
*936 FILLER_0_131_27
*937 FILLER_0_131_3
*938 FILLER_0_131_39
*939 FILLER_0_131_51
*940 FILLER_0_131_55
*941 FILLER_0_131_57
*942 FILLER_0_131_73
*943 FILLER_0_131_91
*944 FILLER_0_132_19
*945 FILLER_0_132_27
*946 FILLER_0_132_29
*947 FILLER_0_132_41
*948 FILLER_0_132_47
*949 FILLER_0_132_58
*950 FILLER_0_132_7
*951 FILLER_0_132_71
*952 FILLER_0_132_81
*953 FILLER_0_132_92
*954 FILLER_0_133_15
*955 FILLER_0_133_27
*956 FILLER_0_133_3
*957 FILLER_0_133_39
*958 FILLER_0_133_51
*959 FILLER_0_133_55
*960 FILLER_0_133_57
*961 FILLER_0_133_67
*962 FILLER_0_133_78
*963 FILLER_0_133_82
*964 FILLER_0_134_19
*965 FILLER_0_134_27
*966 FILLER_0_134_29
*967 FILLER_0_134_41
*968 FILLER_0_134_53
*969 FILLER_0_134_65
*970 FILLER_0_134_7
*971 FILLER_0_134_77
*972 FILLER_0_135_15
*973 FILLER_0_135_27
*974 FILLER_0_135_3
*975 FILLER_0_135_39
*976 FILLER_0_135_51
*977 FILLER_0_135_55
*978 FILLER_0_135_57
*979 FILLER_0_135_69
*980 FILLER_0_135_75
*981 FILLER_0_136_19
*982 FILLER_0_136_27
*983 FILLER_0_136_29
*984 FILLER_0_136_41
*985 FILLER_0_136_53
*986 FILLER_0_136_65
*987 FILLER_0_136_7
*988 FILLER_0_136_77
*989 FILLER_0_136_83
*990 FILLER_0_137_19
*991 FILLER_0_137_31
*992 FILLER_0_137_43
*993 FILLER_0_137_55
*994 FILLER_0_137_57
*995 FILLER_0_137_69
*996 FILLER_0_137_7
*997 FILLER_0_137_81
*998 FILLER_0_138_15
*999 FILLER_0_138_27
*1000 FILLER_0_138_29
*1001 FILLER_0_138_3
*1002 FILLER_0_138_41
*1003 FILLER_0_138_53
*1004 FILLER_0_138_65
*1005 FILLER_0_138_73
*1006 FILLER_0_138_85
*1007 FILLER_0_139_19
*1008 FILLER_0_139_31
*1009 FILLER_0_139_43
*1010 FILLER_0_139_55
*1011 FILLER_0_139_57
*1012 FILLER_0_139_69
*1013 FILLER_0_139_7
*1014 FILLER_0_139_81
*1015 FILLER_0_13_21
*1016 FILLER_0_13_33
*1017 FILLER_0_13_45
*1018 FILLER_0_13_53
*1019 FILLER_0_13_57
*1020 FILLER_0_13_69
*1021 FILLER_0_13_81
*1022 FILLER_0_13_9
*1023 FILLER_0_140_15
*1024 FILLER_0_140_27
*1025 FILLER_0_140_29
*1026 FILLER_0_140_3
*1027 FILLER_0_140_41
*1028 FILLER_0_140_53
*1029 FILLER_0_140_65
*1030 FILLER_0_140_77
*1031 FILLER_0_140_83
*1032 FILLER_0_140_85
*1033 FILLER_0_141_19
*1034 FILLER_0_141_31
*1035 FILLER_0_141_43
*1036 FILLER_0_141_55
*1037 FILLER_0_141_57
*1038 FILLER_0_141_69
*1039 FILLER_0_141_7
*1040 FILLER_0_141_81
*1041 FILLER_0_142_15
*1042 FILLER_0_142_27
*1043 FILLER_0_142_29
*1044 FILLER_0_142_3
*1045 FILLER_0_142_41
*1046 FILLER_0_142_53
*1047 FILLER_0_142_65
*1048 FILLER_0_142_77
*1049 FILLER_0_142_83
*1050 FILLER_0_142_85
*1051 FILLER_0_143_19
*1052 FILLER_0_143_31
*1053 FILLER_0_143_43
*1054 FILLER_0_143_55
*1055 FILLER_0_143_57
*1056 FILLER_0_143_69
*1057 FILLER_0_143_7
*1058 FILLER_0_143_81
*1059 FILLER_0_144_19
*1060 FILLER_0_144_27
*1061 FILLER_0_144_29
*1062 FILLER_0_144_41
*1063 FILLER_0_144_53
*1064 FILLER_0_144_65
*1065 FILLER_0_144_7
*1066 FILLER_0_144_77
*1067 FILLER_0_144_83
*1068 FILLER_0_144_85
*1069 FILLER_0_145_15
*1070 FILLER_0_145_27
*1071 FILLER_0_145_3
*1072 FILLER_0_145_39
*1073 FILLER_0_145_51
*1074 FILLER_0_145_55
*1075 FILLER_0_145_57
*1076 FILLER_0_145_69
*1077 FILLER_0_145_81
*1078 FILLER_0_146_19
*1079 FILLER_0_146_27
*1080 FILLER_0_146_29
*1081 FILLER_0_146_41
*1082 FILLER_0_146_53
*1083 FILLER_0_146_65
*1084 FILLER_0_146_7
*1085 FILLER_0_146_77
*1086 FILLER_0_146_83
*1087 FILLER_0_146_85
*1088 FILLER_0_147_15
*1089 FILLER_0_147_27
*1090 FILLER_0_147_3
*1091 FILLER_0_147_39
*1092 FILLER_0_147_51
*1093 FILLER_0_147_55
*1094 FILLER_0_147_57
*1095 FILLER_0_147_69
*1096 FILLER_0_147_81
*1097 FILLER_0_148_19
*1098 FILLER_0_148_27
*1099 FILLER_0_148_29
*1100 FILLER_0_148_41
*1101 FILLER_0_148_53
*1102 FILLER_0_148_65
*1103 FILLER_0_148_7
*1104 FILLER_0_148_77
*1105 FILLER_0_148_83
*1106 FILLER_0_148_85
*1107 FILLER_0_149_15
*1108 FILLER_0_149_27
*1109 FILLER_0_149_3
*1110 FILLER_0_149_39
*1111 FILLER_0_149_51
*1112 FILLER_0_149_55
*1113 FILLER_0_149_57
*1114 FILLER_0_149_69
*1115 FILLER_0_149_81
*1116 FILLER_0_14_15
*1117 FILLER_0_14_27
*1118 FILLER_0_14_29
*1119 FILLER_0_14_3
*1120 FILLER_0_14_41
*1121 FILLER_0_14_53
*1122 FILLER_0_14_65
*1123 FILLER_0_14_77
*1124 FILLER_0_14_83
*1125 FILLER_0_14_85
*1126 FILLER_0_150_19
*1127 FILLER_0_150_27
*1128 FILLER_0_150_29
*1129 FILLER_0_150_41
*1130 FILLER_0_150_53
*1131 FILLER_0_150_65
*1132 FILLER_0_150_7
*1133 FILLER_0_150_77
*1134 FILLER_0_150_83
*1135 FILLER_0_150_85
*1136 FILLER_0_151_19
*1137 FILLER_0_151_31
*1138 FILLER_0_151_43
*1139 FILLER_0_151_55
*1140 FILLER_0_151_57
*1141 FILLER_0_151_69
*1142 FILLER_0_151_7
*1143 FILLER_0_151_81
*1144 FILLER_0_152_15
*1145 FILLER_0_152_27
*1146 FILLER_0_152_29
*1147 FILLER_0_152_3
*1148 FILLER_0_152_41
*1149 FILLER_0_152_53
*1150 FILLER_0_152_65
*1151 FILLER_0_152_77
*1152 FILLER_0_152_83
*1153 FILLER_0_152_85
*1154 FILLER_0_153_19
*1155 FILLER_0_153_31
*1156 FILLER_0_153_43
*1157 FILLER_0_153_55
*1158 FILLER_0_153_57
*1159 FILLER_0_153_69
*1160 FILLER_0_153_7
*1161 FILLER_0_153_81
*1162 FILLER_0_154_15
*1163 FILLER_0_154_27
*1164 FILLER_0_154_29
*1165 FILLER_0_154_3
*1166 FILLER_0_154_41
*1167 FILLER_0_154_53
*1168 FILLER_0_154_65
*1169 FILLER_0_154_77
*1170 FILLER_0_154_83
*1171 FILLER_0_154_85
*1172 FILLER_0_155_15
*1173 FILLER_0_155_27
*1174 FILLER_0_155_3
*1175 FILLER_0_155_39
*1176 FILLER_0_155_51
*1177 FILLER_0_155_55
*1178 FILLER_0_155_57
*1179 FILLER_0_155_69
*1180 FILLER_0_155_81
*1181 FILLER_0_156_1005
*1182 FILLER_0_156_1009
*1183 FILLER_0_156_1021
*1184 FILLER_0_156_1033
*1185 FILLER_0_156_1037
*1186 FILLER_0_156_1049
*1187 FILLER_0_156_1061
*1188 FILLER_0_156_1065
*1189 FILLER_0_156_1077
*1190 FILLER_0_156_1089
*1191 FILLER_0_156_109
*1192 FILLER_0_156_1093
*1193 FILLER_0_156_1105
*1194 FILLER_0_156_1117
*1195 FILLER_0_156_1121
*1196 FILLER_0_156_113
*1197 FILLER_0_156_1133
*1198 FILLER_0_156_1145
*1199 FILLER_0_156_1149
*1200 FILLER_0_156_1157
*1201 FILLER_0_156_1163
*1202 FILLER_0_156_1167
*1203 FILLER_0_156_125
*1204 FILLER_0_156_137
*1205 FILLER_0_156_141
*1206 FILLER_0_156_15
*1207 FILLER_0_156_153
*1208 FILLER_0_156_165
*1209 FILLER_0_156_169
*1210 FILLER_0_156_181
*1211 FILLER_0_156_193
*1212 FILLER_0_156_197
*1213 FILLER_0_156_207
*1214 FILLER_0_156_219
*1215 FILLER_0_156_223
*1216 FILLER_0_156_225
*1217 FILLER_0_156_237
*1218 FILLER_0_156_249
*1219 FILLER_0_156_262
*1220 FILLER_0_156_27
*1221 FILLER_0_156_274
*1222 FILLER_0_156_29
*1223 FILLER_0_156_290
*1224 FILLER_0_156_3
*1225 FILLER_0_156_302
*1226 FILLER_0_156_309
*1227 FILLER_0_156_321
*1228 FILLER_0_156_333
*1229 FILLER_0_156_337
*1230 FILLER_0_156_349
*1231 FILLER_0_156_361
*1232 FILLER_0_156_365
*1233 FILLER_0_156_385
*1234 FILLER_0_156_391
*1235 FILLER_0_156_402
*1236 FILLER_0_156_41
*1237 FILLER_0_156_412
*1238 FILLER_0_156_416
*1239 FILLER_0_156_421
*1240 FILLER_0_156_425
*1241 FILLER_0_156_445
*1242 FILLER_0_156_449
*1243 FILLER_0_156_453
*1244 FILLER_0_156_456
*1245 FILLER_0_156_497
*1246 FILLER_0_156_501
*1247 FILLER_0_156_505
*1248 FILLER_0_156_524
*1249 FILLER_0_156_528
*1250 FILLER_0_156_53
*1251 FILLER_0_156_533
*1252 FILLER_0_156_537
*1253 FILLER_0_156_541
*1254 FILLER_0_156_546
*1255 FILLER_0_156_550
*1256 FILLER_0_156_554
*1257 FILLER_0_156_561
*1258 FILLER_0_156_566
*1259 FILLER_0_156_57
*1260 FILLER_0_156_605
*1261 FILLER_0_156_613
*1262 FILLER_0_156_617
*1263 FILLER_0_156_629
*1264 FILLER_0_156_641
*1265 FILLER_0_156_645
*1266 FILLER_0_156_655
*1267 FILLER_0_156_667
*1268 FILLER_0_156_671
*1269 FILLER_0_156_673
*1270 FILLER_0_156_685
*1271 FILLER_0_156_69
*1272 FILLER_0_156_697
*1273 FILLER_0_156_701
*1274 FILLER_0_156_713
*1275 FILLER_0_156_725
*1276 FILLER_0_156_729
*1277 FILLER_0_156_741
*1278 FILLER_0_156_753
*1279 FILLER_0_156_757
*1280 FILLER_0_156_769
*1281 FILLER_0_156_781
*1282 FILLER_0_156_785
*1283 FILLER_0_156_797
*1284 FILLER_0_156_809
*1285 FILLER_0_156_81
*1286 FILLER_0_156_813
*1287 FILLER_0_156_825
*1288 FILLER_0_156_837
*1289 FILLER_0_156_841
*1290 FILLER_0_156_85
*1291 FILLER_0_156_853
*1292 FILLER_0_156_865
*1293 FILLER_0_156_869
*1294 FILLER_0_156_881
*1295 FILLER_0_156_893
*1296 FILLER_0_156_897
*1297 FILLER_0_156_909
*1298 FILLER_0_156_921
*1299 FILLER_0_156_925
*1300 FILLER_0_156_937
*1301 FILLER_0_156_949
*1302 FILLER_0_156_953
*1303 FILLER_0_156_965
*1304 FILLER_0_156_97
*1305 FILLER_0_156_977
*1306 FILLER_0_156_981
*1307 FILLER_0_156_993
*1308 FILLER_0_15_21
*1309 FILLER_0_15_33
*1310 FILLER_0_15_45
*1311 FILLER_0_15_53
*1312 FILLER_0_15_57
*1313 FILLER_0_15_69
*1314 FILLER_0_15_9
*1315 FILLER_0_16_15
*1316 FILLER_0_16_27
*1317 FILLER_0_16_29
*1318 FILLER_0_16_3
*1319 FILLER_0_16_41
*1320 FILLER_0_16_53
*1321 FILLER_0_16_65
*1322 FILLER_0_16_77
*1323 FILLER_0_16_83
*1324 FILLER_0_16_85
*1325 FILLER_0_17_21
*1326 FILLER_0_17_33
*1327 FILLER_0_17_45
*1328 FILLER_0_17_53
*1329 FILLER_0_17_57
*1330 FILLER_0_17_69
*1331 FILLER_0_17_81
*1332 FILLER_0_17_9
*1333 FILLER_0_18_21
*1334 FILLER_0_18_27
*1335 FILLER_0_18_29
*1336 FILLER_0_18_41
*1337 FILLER_0_18_53
*1338 FILLER_0_18_65
*1339 FILLER_0_18_71
*1340 FILLER_0_18_85
*1341 FILLER_0_18_9
*1342 FILLER_0_19_15
*1343 FILLER_0_19_27
*1344 FILLER_0_19_3
*1345 FILLER_0_19_39
*1346 FILLER_0_19_51
*1347 FILLER_0_19_55
*1348 FILLER_0_19_57
*1349 FILLER_0_19_69
*1350 FILLER_0_1_15
*1351 FILLER_0_1_27
*1352 FILLER_0_1_3
*1353 FILLER_0_1_39
*1354 FILLER_0_1_51
*1355 FILLER_0_1_55
*1356 FILLER_0_1_57
*1357 FILLER_0_1_69
*1358 FILLER_0_1_81
*1359 FILLER_0_20_21
*1360 FILLER_0_20_27
*1361 FILLER_0_20_29
*1362 FILLER_0_20_41
*1363 FILLER_0_20_53
*1364 FILLER_0_20_65
*1365 FILLER_0_20_77
*1366 FILLER_0_20_83
*1367 FILLER_0_20_85
*1368 FILLER_0_20_9
*1369 FILLER_0_21_15
*1370 FILLER_0_21_27
*1371 FILLER_0_21_3
*1372 FILLER_0_21_39
*1373 FILLER_0_21_51
*1374 FILLER_0_21_55
*1375 FILLER_0_21_57
*1376 FILLER_0_21_69
*1377 FILLER_0_21_81
*1378 FILLER_0_22_21
*1379 FILLER_0_22_27
*1380 FILLER_0_22_29
*1381 FILLER_0_22_41
*1382 FILLER_0_22_53
*1383 FILLER_0_22_65
*1384 FILLER_0_22_71
*1385 FILLER_0_22_85
*1386 FILLER_0_22_9
*1387 FILLER_0_23_15
*1388 FILLER_0_23_27
*1389 FILLER_0_23_3
*1390 FILLER_0_23_39
*1391 FILLER_0_23_51
*1392 FILLER_0_23_55
*1393 FILLER_0_23_57
*1394 FILLER_0_23_69
*1395 FILLER_0_23_81
*1396 FILLER_0_24_21
*1397 FILLER_0_24_27
*1398 FILLER_0_24_29
*1399 FILLER_0_24_41
*1400 FILLER_0_24_53
*1401 FILLER_0_24_65
*1402 FILLER_0_24_73
*1403 FILLER_0_24_85
*1404 FILLER_0_24_9
*1405 FILLER_0_25_21
*1406 FILLER_0_25_33
*1407 FILLER_0_25_45
*1408 FILLER_0_25_53
*1409 FILLER_0_25_57
*1410 FILLER_0_25_69
*1411 FILLER_0_25_81
*1412 FILLER_0_25_9
*1413 FILLER_0_26_15
*1414 FILLER_0_26_27
*1415 FILLER_0_26_29
*1416 FILLER_0_26_3
*1417 FILLER_0_26_41
*1418 FILLER_0_26_53
*1419 FILLER_0_26_65
*1420 FILLER_0_26_77
*1421 FILLER_0_26_83
*1422 FILLER_0_26_85
*1423 FILLER_0_27_21
*1424 FILLER_0_27_33
*1425 FILLER_0_27_45
*1426 FILLER_0_27_53
*1427 FILLER_0_27_57
*1428 FILLER_0_27_69
*1429 FILLER_0_27_81
*1430 FILLER_0_27_9
*1431 FILLER_0_28_15
*1432 FILLER_0_28_27
*1433 FILLER_0_28_29
*1434 FILLER_0_28_3
*1435 FILLER_0_28_41
*1436 FILLER_0_28_53
*1437 FILLER_0_28_65
*1438 FILLER_0_28_80
*1439 FILLER_0_28_85
*1440 FILLER_0_29_21
*1441 FILLER_0_29_33
*1442 FILLER_0_29_45
*1443 FILLER_0_29_53
*1444 FILLER_0_29_57
*1445 FILLER_0_29_72
*1446 FILLER_0_29_84
*1447 FILLER_0_29_9
*1448 FILLER_0_29_92
*1449 FILLER_0_2_15
*1450 FILLER_0_2_27
*1451 FILLER_0_2_29
*1452 FILLER_0_2_3
*1453 FILLER_0_2_41
*1454 FILLER_0_2_53
*1455 FILLER_0_2_65
*1456 FILLER_0_2_77
*1457 FILLER_0_2_83
*1458 FILLER_0_2_85
*1459 FILLER_0_30_15
*1460 FILLER_0_30_27
*1461 FILLER_0_30_29
*1462 FILLER_0_30_3
*1463 FILLER_0_30_41
*1464 FILLER_0_30_53
*1465 FILLER_0_30_65
*1466 FILLER_0_30_74
*1467 FILLER_0_30_82
*1468 FILLER_0_30_85
*1469 FILLER_0_31_21
*1470 FILLER_0_31_33
*1471 FILLER_0_31_45
*1472 FILLER_0_31_53
*1473 FILLER_0_31_57
*1474 FILLER_0_31_69
*1475 FILLER_0_31_81
*1476 FILLER_0_31_9
*1477 FILLER_0_32_14
*1478 FILLER_0_32_26
*1479 FILLER_0_32_29
*1480 FILLER_0_32_41
*1481 FILLER_0_32_53
*1482 FILLER_0_32_65
*1483 FILLER_0_32_73
*1484 FILLER_0_32_81
*1485 FILLER_0_32_85
*1486 FILLER_0_33_15
*1487 FILLER_0_33_27
*1488 FILLER_0_33_3
*1489 FILLER_0_33_39
*1490 FILLER_0_33_51
*1491 FILLER_0_33_55
*1492 FILLER_0_33_57
*1493 FILLER_0_33_69
*1494 FILLER_0_33_81
*1495 FILLER_0_34_21
*1496 FILLER_0_34_27
*1497 FILLER_0_34_29
*1498 FILLER_0_34_41
*1499 FILLER_0_34_53
*1500 FILLER_0_34_65
*1501 FILLER_0_34_77
*1502 FILLER_0_34_83
*1503 FILLER_0_34_85
*1504 FILLER_0_34_9
*1505 FILLER_0_35_15
*1506 FILLER_0_35_27
*1507 FILLER_0_35_3
*1508 FILLER_0_35_39
*1509 FILLER_0_35_51
*1510 FILLER_0_35_55
*1511 FILLER_0_35_57
*1512 FILLER_0_35_69
*1513 FILLER_0_35_81
*1514 FILLER_0_36_21
*1515 FILLER_0_36_27
*1516 FILLER_0_36_29
*1517 FILLER_0_36_41
*1518 FILLER_0_36_53
*1519 FILLER_0_36_65
*1520 FILLER_0_36_77
*1521 FILLER_0_36_83
*1522 FILLER_0_36_85
*1523 FILLER_0_36_9
*1524 FILLER_0_37_15
*1525 FILLER_0_37_27
*1526 FILLER_0_37_3
*1527 FILLER_0_37_39
*1528 FILLER_0_37_51
*1529 FILLER_0_37_55
*1530 FILLER_0_37_57
*1531 FILLER_0_37_65
*1532 FILLER_0_37_71
*1533 FILLER_0_37_83
*1534 FILLER_0_37_91
*1535 FILLER_0_38_21
*1536 FILLER_0_38_27