*SPEF "ieee 1481-1999"
*DESIGN "eFPGA_Config"
*DATE "11:11:11 Fri 11 11, 1111"
*VENDOR "OpenRCX"
*PROGRAM "Parallel Extraction"
*VERSION "1.0"
*DESIGN_FLOW "NAME_SCOPE LOCAL" "PIN_CAP NONE"
*DIVIDER /
*DELIMITER :
*BUS_DELIMITER []
*T_UNIT 1 NS
*C_UNIT 1 PF
*R_UNIT 1 OHM
*L_UNIT 1 HENRY

*NAME_MAP
*1 CLK
*2 ComActive
*3 ConfigWriteData[0]
*4 ConfigWriteData[10]
*5 ConfigWriteData[11]
*6 ConfigWriteData[12]
*7 ConfigWriteData[13]
*8 ConfigWriteData[14]
*9 ConfigWriteData[15]
*10 ConfigWriteData[16]
*11 ConfigWriteData[17]
*12 ConfigWriteData[18]
*13 ConfigWriteData[19]
*14 ConfigWriteData[1]
*15 ConfigWriteData[20]
*16 ConfigWriteData[21]
*17 ConfigWriteData[22]
*18 ConfigWriteData[23]
*19 ConfigWriteData[24]
*20 ConfigWriteData[25]
*21 ConfigWriteData[26]
*22 ConfigWriteData[27]
*23 ConfigWriteData[28]
*24 ConfigWriteData[29]
*25 ConfigWriteData[2]
*26 ConfigWriteData[30]
*27 ConfigWriteData[31]
*28 ConfigWriteData[3]
*29 ConfigWriteData[4]
*30 ConfigWriteData[5]
*31 ConfigWriteData[6]
*32 ConfigWriteData[7]
*33 ConfigWriteData[8]
*34 ConfigWriteData[9]
*35 ConfigWriteStrobe
*36 FrameAddressRegister[0]
*37 FrameAddressRegister[10]
*38 FrameAddressRegister[11]
*39 FrameAddressRegister[12]
*40 FrameAddressRegister[13]
*41 FrameAddressRegister[14]
*42 FrameAddressRegister[15]
*43 FrameAddressRegister[16]
*44 FrameAddressRegister[17]
*45 FrameAddressRegister[18]
*46 FrameAddressRegister[19]
*47 FrameAddressRegister[1]
*48 FrameAddressRegister[20]
*49 FrameAddressRegister[21]
*50 FrameAddressRegister[22]
*51 FrameAddressRegister[23]
*52 FrameAddressRegister[24]
*53 FrameAddressRegister[25]
*54 FrameAddressRegister[26]
*55 FrameAddressRegister[27]
*56 FrameAddressRegister[28]
*57 FrameAddressRegister[29]
*58 FrameAddressRegister[2]
*59 FrameAddressRegister[30]
*60 FrameAddressRegister[31]
*61 FrameAddressRegister[3]
*62 FrameAddressRegister[4]
*63 FrameAddressRegister[5]
*64 FrameAddressRegister[6]
*65 FrameAddressRegister[7]
*66 FrameAddressRegister[8]
*67 FrameAddressRegister[9]
*68 LongFrameStrobe
*69 ReceiveLED
*70 RowSelect[0]
*71 RowSelect[1]
*72 RowSelect[2]
*73 RowSelect[3]
*74 RowSelect[4]
*75 Rx
*76 SelfWriteData[0]
*77 SelfWriteData[10]
*78 SelfWriteData[11]
*79 SelfWriteData[12]
*80 SelfWriteData[13]
*81 SelfWriteData[14]
*82 SelfWriteData[15]
*83 SelfWriteData[16]
*84 SelfWriteData[17]
*85 SelfWriteData[18]
*86 SelfWriteData[19]
*87 SelfWriteData[1]
*88 SelfWriteData[20]
*89 SelfWriteData[21]
*90 SelfWriteData[22]
*91 SelfWriteData[23]
*92 SelfWriteData[24]
*93 SelfWriteData[25]
*94 SelfWriteData[26]
*95 SelfWriteData[27]
*96 SelfWriteData[28]
*97 SelfWriteData[29]
*98 SelfWriteData[2]
*99 SelfWriteData[30]
*100 SelfWriteData[31]
*101 SelfWriteData[3]
*102 SelfWriteData[4]
*103 SelfWriteData[5]
*104 SelfWriteData[6]
*105 SelfWriteData[7]
*106 SelfWriteData[8]
*107 SelfWriteData[9]
*108 SelfWriteStrobe
*109 resetn
*110 s_clk
*111 s_data
*114 ConfigFSM_inst\.FSM_Reset
*115 ConfigFSM_inst\.FrameAddressRegister\[0\]
*116 ConfigFSM_inst\.FrameAddressRegister\[10\]
*117 ConfigFSM_inst\.FrameAddressRegister\[11\]
*118 ConfigFSM_inst\.FrameAddressRegister\[12\]
*119 ConfigFSM_inst\.FrameAddressRegister\[13\]
*120 ConfigFSM_inst\.FrameAddressRegister\[14\]
*121 ConfigFSM_inst\.FrameAddressRegister\[15\]
*122 ConfigFSM_inst\.FrameAddressRegister\[16\]
*123 ConfigFSM_inst\.FrameAddressRegister\[17\]
*124 ConfigFSM_inst\.FrameAddressRegister\[18\]
*125 ConfigFSM_inst\.FrameAddressRegister\[19\]
*126 ConfigFSM_inst\.FrameAddressRegister\[1\]
*127 ConfigFSM_inst\.FrameAddressRegister\[21\]
*128 ConfigFSM_inst\.FrameAddressRegister\[22\]
*129 ConfigFSM_inst\.FrameAddressRegister\[23\]
*130 ConfigFSM_inst\.FrameAddressRegister\[24\]
*131 ConfigFSM_inst\.FrameAddressRegister\[25\]
*132 ConfigFSM_inst\.FrameAddressRegister\[26\]
*133 ConfigFSM_inst\.FrameAddressRegister\[27\]
*134 ConfigFSM_inst\.FrameAddressRegister\[28\]
*135 ConfigFSM_inst\.FrameAddressRegister\[29\]
*136 ConfigFSM_inst\.FrameAddressRegister\[2\]
*137 ConfigFSM_inst\.FrameAddressRegister\[30\]
*138 ConfigFSM_inst\.FrameAddressRegister\[31\]
*139 ConfigFSM_inst\.FrameAddressRegister\[3\]
*140 ConfigFSM_inst\.FrameAddressRegister\[4\]
*141 ConfigFSM_inst\.FrameAddressRegister\[5\]
*142 ConfigFSM_inst\.FrameAddressRegister\[6\]
*143 ConfigFSM_inst\.FrameAddressRegister\[7\]
*144 ConfigFSM_inst\.FrameAddressRegister\[8\]
*145 ConfigFSM_inst\.FrameAddressRegister\[9\]
*146 ConfigFSM_inst\.FrameShiftState\[0\]
*147 ConfigFSM_inst\.FrameShiftState\[1\]
*148 ConfigFSM_inst\.FrameShiftState\[2\]
*149 ConfigFSM_inst\.FrameShiftState\[3\]
*150 ConfigFSM_inst\.FrameShiftState\[4\]
*151 ConfigFSM_inst\.FrameStrobe
*152 ConfigFSM_inst\.RowSelect\[0\]
*153 ConfigFSM_inst\.RowSelect\[1\]
*154 ConfigFSM_inst\.RowSelect\[2\]
*155 ConfigFSM_inst\.RowSelect\[3\]
*156 ConfigFSM_inst\.RowSelect\[4\]
*157 ConfigFSM_inst\.WriteData\[0\]
*158 ConfigFSM_inst\.WriteData\[10\]
*159 ConfigFSM_inst\.WriteData\[11\]
*160 ConfigFSM_inst\.WriteData\[12\]
*161 ConfigFSM_inst\.WriteData\[13\]
*162 ConfigFSM_inst\.WriteData\[14\]
*163 ConfigFSM_inst\.WriteData\[15\]
*164 ConfigFSM_inst\.WriteData\[16\]
*165 ConfigFSM_inst\.WriteData\[17\]
*166 ConfigFSM_inst\.WriteData\[18\]
*167 ConfigFSM_inst\.WriteData\[19\]
*168 ConfigFSM_inst\.WriteData\[1\]
*169 ConfigFSM_inst\.WriteData\[20\]
*170 ConfigFSM_inst\.WriteData\[21\]
*171 ConfigFSM_inst\.WriteData\[22\]
*172 ConfigFSM_inst\.WriteData\[23\]
*173 ConfigFSM_inst\.WriteData\[24\]
*174 ConfigFSM_inst\.WriteData\[25\]
*175 ConfigFSM_inst\.WriteData\[26\]
*176 ConfigFSM_inst\.WriteData\[27\]
*177 ConfigFSM_inst\.WriteData\[28\]
*178 ConfigFSM_inst\.WriteData\[29\]
*179 ConfigFSM_inst\.WriteData\[2\]
*180 ConfigFSM_inst\.WriteData\[30\]
*181 ConfigFSM_inst\.WriteData\[31\]
*182 ConfigFSM_inst\.WriteData\[3\]
*183 ConfigFSM_inst\.WriteData\[4\]
*184 ConfigFSM_inst\.WriteData\[5\]
*185 ConfigFSM_inst\.WriteData\[6\]
*186 ConfigFSM_inst\.WriteData\[7\]
*187 ConfigFSM_inst\.WriteData\[8\]
*188 ConfigFSM_inst\.WriteData\[9\]
*189 ConfigFSM_inst\._000_
*190 ConfigFSM_inst\._001_
*191 ConfigFSM_inst\._002_
*192 ConfigFSM_inst\._003_
*193 ConfigFSM_inst\._004_
*194 ConfigFSM_inst\._005_
*195 ConfigFSM_inst\._006_
*196 ConfigFSM_inst\._007_
*197 ConfigFSM_inst\._008_
*198 ConfigFSM_inst\._009_
*199 ConfigFSM_inst\._010_
*200 ConfigFSM_inst\._011_
*201 ConfigFSM_inst\._012_
*202 ConfigFSM_inst\._013_
*203 ConfigFSM_inst\._014_
*204 ConfigFSM_inst\._015_
*205 ConfigFSM_inst\._016_
*206 ConfigFSM_inst\._017_
*207 ConfigFSM_inst\._018_
*208 ConfigFSM_inst\._019_
*209 ConfigFSM_inst\._020_
*210 ConfigFSM_inst\._021_
*211 ConfigFSM_inst\._022_
*212 ConfigFSM_inst\._023_
*213 ConfigFSM_inst\._024_
*214 ConfigFSM_inst\._025_
*215 ConfigFSM_inst\._026_
*216 ConfigFSM_inst\._027_
*217 ConfigFSM_inst\._028_
*218 ConfigFSM_inst\._029_
*219 ConfigFSM_inst\._030_
*220 ConfigFSM_inst\._031_
*221 ConfigFSM_inst\._032_
*222 ConfigFSM_inst\._033_
*223 ConfigFSM_inst\._034_
*224 ConfigFSM_inst\._035_
*225 ConfigFSM_inst\._036_
*226 ConfigFSM_inst\._037_
*227 ConfigFSM_inst\._038_
*228 ConfigFSM_inst\._039_
*229 ConfigFSM_inst\._040_
*230 ConfigFSM_inst\._041_
*231 ConfigFSM_inst\._042_
*232 ConfigFSM_inst\._043_
*233 ConfigFSM_inst\._044_
*234 ConfigFSM_inst\._045_
*235 ConfigFSM_inst\._046_
*236 ConfigFSM_inst\._047_
*237 ConfigFSM_inst\._048_
*238 ConfigFSM_inst\._049_
*239 ConfigFSM_inst\._050_
*240 ConfigFSM_inst\._051_
*241 ConfigFSM_inst\._052_
*242 ConfigFSM_inst\._053_
*243 ConfigFSM_inst\._054_
*244 ConfigFSM_inst\._055_
*245 ConfigFSM_inst\._056_
*246 ConfigFSM_inst\._057_
*247 ConfigFSM_inst\._058_
*248 ConfigFSM_inst\._059_
*249 ConfigFSM_inst\._060_
*250 ConfigFSM_inst\._061_
*251 ConfigFSM_inst\._062_
*252 ConfigFSM_inst\._063_
*253 ConfigFSM_inst\._064_
*254 ConfigFSM_inst\._065_
*255 ConfigFSM_inst\._066_
*256 ConfigFSM_inst\._067_
*257 ConfigFSM_inst\._068_
*258 ConfigFSM_inst\._069_
*259 ConfigFSM_inst\._070_
*260 ConfigFSM_inst\._071_
*261 ConfigFSM_inst\._072_
*262 ConfigFSM_inst\._073_
*263 ConfigFSM_inst\._074_
*264 ConfigFSM_inst\._075_
*265 ConfigFSM_inst\._076_
*266 ConfigFSM_inst\._077_
*267 ConfigFSM_inst\._078_
*268 ConfigFSM_inst\._079_
*269 ConfigFSM_inst\._080_
*270 ConfigFSM_inst\._081_
*271 ConfigFSM_inst\._082_
*272 ConfigFSM_inst\._083_
*273 ConfigFSM_inst\._084_
*274 ConfigFSM_inst\._085_
*275 ConfigFSM_inst\._086_
*276 ConfigFSM_inst\._087_
*277 ConfigFSM_inst\._088_
*278 ConfigFSM_inst\._089_
*279 ConfigFSM_inst\._090_
*280 ConfigFSM_inst\._091_
*281 ConfigFSM_inst\._092_
*282 ConfigFSM_inst\._093_
*283 ConfigFSM_inst\._094_
*284 ConfigFSM_inst\._095_
*285 ConfigFSM_inst\._096_
*286 ConfigFSM_inst\._097_
*287 ConfigFSM_inst\._098_
*288 ConfigFSM_inst\._099_
*289 ConfigFSM_inst\._100_
*290 ConfigFSM_inst\._101_
*291 ConfigFSM_inst\._102_
*292 ConfigFSM_inst\._103_
*293 ConfigFSM_inst\._104_
*294 ConfigFSM_inst\._105_
*295 ConfigFSM_inst\._106_
*296 ConfigFSM_inst\._107_
*297 ConfigFSM_inst\._108_
*298 ConfigFSM_inst\._109_
*299 ConfigFSM_inst\._110_
*300 ConfigFSM_inst\._111_
*301 ConfigFSM_inst\._112_
*302 ConfigFSM_inst\._113_
*303 ConfigFSM_inst\._114_
*304 ConfigFSM_inst\._115_
*305 ConfigFSM_inst\._116_
*306 ConfigFSM_inst\._117_
*307 ConfigFSM_inst\._118_
*308 ConfigFSM_inst\._119_
*309 ConfigFSM_inst\.oldFrameStrobe
*310 ConfigFSM_inst\.old_reset
*311 ConfigFSM_inst\.state\[0\]
*312 ConfigFSM_inst\.state\[1\]
*313 ConfigFSM_inst\.state\[2\]
*314 INST_config_UART\.ByteWriteStrobe
*315 INST_config_UART\.CRCReg\[0\]
*316 INST_config_UART\.CRCReg\[10\]
*317 INST_config_UART\.CRCReg\[11\]
*318 INST_config_UART\.CRCReg\[12\]
*319 INST_config_UART\.CRCReg\[13\]
*320 INST_config_UART\.CRCReg\[14\]
*321 INST_config_UART\.CRCReg\[15\]
*322 INST_config_UART\.CRCReg\[16\]
*323 INST_config_UART\.CRCReg\[17\]
*324 INST_config_UART\.CRCReg\[18\]
*325 INST_config_UART\.CRCReg\[19\]
*326 INST_config_UART\.CRCReg\[1\]
*327 INST_config_UART\.CRCReg\[2\]
*328 INST_config_UART\.CRCReg\[3\]
*329 INST_config_UART\.CRCReg\[4\]
*330 INST_config_UART\.CRCReg\[5\]
*331 INST_config_UART\.CRCReg\[6\]
*332 INST_config_UART\.CRCReg\[7\]
*333 INST_config_UART\.CRCReg\[8\]
*334 INST_config_UART\.CRCReg\[9\]
*335 INST_config_UART\.ComCount\[0\]
*336 INST_config_UART\.ComCount\[10\]
*337 INST_config_UART\.ComCount\[11\]
*338 INST_config_UART\.ComCount\[1\]
*339 INST_config_UART\.ComCount\[2\]
*340 INST_config_UART\.ComCount\[3\]
*341 INST_config_UART\.ComCount\[4\]
*342 INST_config_UART\.ComCount\[5\]
*343 INST_config_UART\.ComCount\[6\]
*344 INST_config_UART\.ComCount\[7\]
*345 INST_config_UART\.ComCount\[8\]
*346 INST_config_UART\.ComCount\[9\]
*347 INST_config_UART\.ComState\[0\]
*348 INST_config_UART\.ComState\[10\]
*349 INST_config_UART\.ComState\[1\]
*350 INST_config_UART\.ComState\[2\]
*351 INST_config_UART\.ComState\[3\]
*352 INST_config_UART\.ComState\[4\]
*353 INST_config_UART\.ComState\[5\]
*354 INST_config_UART\.ComState\[6\]
*355 INST_config_UART\.ComState\[7\]
*356 INST_config_UART\.ComState\[8\]
*357 INST_config_UART\.ComState\[9\]
*358 INST_config_UART\.ComTick
*359 INST_config_UART\.Command\[0\]
*360 INST_config_UART\.Command\[1\]
*361 INST_config_UART\.Command\[2\]
*362 INST_config_UART\.Command\[3\]
*363 INST_config_UART\.Command\[4\]
*364 INST_config_UART\.Command\[5\]
*365 INST_config_UART\.Command\[6\]
*366 INST_config_UART\.Command\[7\]
*367 INST_config_UART\.Data_Reg\[0\]
*368 INST_config_UART\.Data_Reg\[1\]
*369 INST_config_UART\.Data_Reg\[2\]
*370 INST_config_UART\.Data_Reg\[3\]
*371 INST_config_UART\.Data_Reg\[4\]
*372 INST_config_UART\.Data_Reg\[5\]
*373 INST_config_UART\.Data_Reg\[6\]
*374 INST_config_UART\.Data_Reg\[7\]
*375 INST_config_UART\.GetWordState\[0\]
*376 INST_config_UART\.GetWordState\[1\]
*377 INST_config_UART\.GetWordState\[2\]
*378 INST_config_UART\.GetWordState\[3\]
*379 INST_config_UART\.HexData\[0\]
*380 INST_config_UART\.HexData\[1\]
*381 INST_config_UART\.HexData\[2\]
*382 INST_config_UART\.HexData\[3\]
*383 INST_config_UART\.HexData\[4\]
*384 INST_config_UART\.HexData\[5\]
*385 INST_config_UART\.HexData\[6\]
*386 INST_config_UART\.HexData\[7\]
*387 INST_config_UART\.HexWriteStrobe
*388 INST_config_UART\.HighReg\[0\]
*389 INST_config_UART\.HighReg\[1\]
*390 INST_config_UART\.HighReg\[2\]
*391 INST_config_UART\.HighReg\[3\]
*392 INST_config_UART\.ID_Reg\[0\]
*393 INST_config_UART\.ID_Reg\[10\]
*394 INST_config_UART\.ID_Reg\[11\]
*395 INST_config_UART\.ID_Reg\[12\]
*396 INST_config_UART\.ID_Reg\[13\]
*397 INST_config_UART\.ID_Reg\[14\]
*398 INST_config_UART\.ID_Reg\[15\]
*399 INST_config_UART\.ID_Reg\[16\]
*400 INST_config_UART\.ID_Reg\[17\]
*401 INST_config_UART\.ID_Reg\[18\]
*402 INST_config_UART\.ID_Reg\[19\]
*403 INST_config_UART\.ID_Reg\[1\]
*404 INST_config_UART\.ID_Reg\[20\]
*405 INST_config_UART\.ID_Reg\[21\]
*406 INST_config_UART\.ID_Reg\[22\]
*407 INST_config_UART\.ID_Reg\[23\]
*408 INST_config_UART\.ID_Reg\[2\]
*409 INST_config_UART\.ID_Reg\[3\]
*410 INST_config_UART\.ID_Reg\[4\]
*411 INST_config_UART\.ID_Reg\[5\]
*412 INST_config_UART\.ID_Reg\[6\]
*413 INST_config_UART\.ID_Reg\[7\]
*414 INST_config_UART\.ID_Reg\[8\]
*415 INST_config_UART\.ID_Reg\[9\]
*416 INST_config_UART\.LocalWriteStrobe
*417 INST_config_UART\.PresentState\[0\]
*418 INST_config_UART\.PresentState\[1\]
*419 INST_config_UART\.PresentState\[2\]
*420 INST_config_UART\.PresentState\[4\]
*421 INST_config_UART\.PresentState\[5\]
*422 INST_config_UART\.PresentState\[6\]
*423 INST_config_UART\.ReceiveLED
*424 INST_config_UART\.ReceiveState
*425 INST_config_UART\.ReceivedWord\[0\]
*426 INST_config_UART\.ReceivedWord\[1\]
*427 INST_config_UART\.ReceivedWord\[2\]
*428 INST_config_UART\.ReceivedWord\[3\]
*429 INST_config_UART\.ReceivedWord\[4\]
*430 INST_config_UART\.ReceivedWord\[5\]
*431 INST_config_UART\.ReceivedWord\[6\]
*432 INST_config_UART\.ReceivedWord\[7\]
*433 INST_config_UART\.RxLocal
*434 INST_config_UART\.TimeToSend
*435 INST_config_UART\.TimeToSendCounter\[0\]
*436 INST_config_UART\.TimeToSendCounter\[10\]
*437 INST_config_UART\.TimeToSendCounter\[11\]
*438 INST_config_UART\.TimeToSendCounter\[12\]
*439 INST_config_UART\.TimeToSendCounter\[13\]
*440 INST_config_UART\.TimeToSendCounter\[14\]
*441 INST_config_UART\.TimeToSendCounter\[1\]
*442 INST_config_UART\.TimeToSendCounter\[2\]
*443 INST_config_UART\.TimeToSendCounter\[3\]
*444 INST_config_UART\.TimeToSendCounter\[4\]
*445 INST_config_UART\.TimeToSendCounter\[5\]
*446 INST_config_UART\.TimeToSendCounter\[6\]
*447 INST_config_UART\.TimeToSendCounter\[7\]
*448 INST_config_UART\.TimeToSendCounter\[8\]
*449 INST_config_UART\.TimeToSendCounter\[9\]
*450 INST_config_UART\.WriteData\[0\]
*451 INST_config_UART\.WriteData\[10\]
*452 INST_config_UART\.WriteData\[11\]
*453 INST_config_UART\.WriteData\[12\]
*454 INST_config_UART\.WriteData\[13\]
*455 INST_config_UART\.WriteData\[14\]
*456 INST_config_UART\.WriteData\[15\]
*457 INST_config_UART\.WriteData\[16\]
*458 INST_config_UART\.WriteData\[17\]
*459 INST_config_UART\.WriteData\[18\]
*460 INST_config_UART\.WriteData\[19\]
*461 INST_config_UART\.WriteData\[1\]
*462 INST_config_UART\.WriteData\[20\]
*463 INST_config_UART\.WriteData\[21\]
*464 INST_config_UART\.WriteData\[22\]
*465 INST_config_UART\.WriteData\[23\]
*466 INST_config_UART\.WriteData\[24\]
*467 INST_config_UART\.WriteData\[25\]
*468 INST_config_UART\.WriteData\[26\]
*469 INST_config_UART\.WriteData\[27\]
*470 INST_config_UART\.WriteData\[28\]
*471 INST_config_UART\.WriteData\[29\]
*472 INST_config_UART\.WriteData\[2\]
*473 INST_config_UART\.WriteData\[30\]
*474 INST_config_UART\.WriteData\[31\]
*475 INST_config_UART\.WriteData\[3\]
*476 INST_config_UART\.WriteData\[4\]
*477 INST_config_UART\.WriteData\[5\]
*478 INST_config_UART\.WriteData\[6\]
*479 INST_config_UART\.WriteData\[7\]
*480 INST_config_UART\.WriteData\[8\]
*481 INST_config_UART\.WriteData\[9\]
*482 INST_config_UART\.WriteStrobe
*483 INST_config_UART\._0000_
*484 INST_config_UART\._0001_
*485 INST_config_UART\._0002_
*486 INST_config_UART\._0003_
*487 INST_config_UART\._0004_
*488 INST_config_UART\._0005_
*489 INST_config_UART\._0006_
*490 INST_config_UART\._0007_
*491 INST_config_UART\._0008_
*492 INST_config_UART\._0009_
*493 INST_config_UART\._0010_
*494 INST_config_UART\._0011_
*495 INST_config_UART\._0012_
*496 INST_config_UART\._0013_
*497 INST_config_UART\._0014_
*498 INST_config_UART\._0015_
*499 INST_config_UART\._0016_
*500 INST_config_UART\._0017_
*501 INST_config_UART\._0018_
*502 INST_config_UART\._0019_
*503 INST_config_UART\._0020_
*504 INST_config_UART\._0021_
*505 INST_config_UART\._0022_
*506 INST_config_UART\._0023_
*507 INST_config_UART\._0024_
*508 INST_config_UART\._0025_
*509 INST_config_UART\._0026_
*510 INST_config_UART\._0027_
*511 INST_config_UART\._0028_
*512 INST_config_UART\._0029_
*513 INST_config_UART\._0030_
*514 INST_config_UART\._0031_
*515 INST_config_UART\._0032_
*516 INST_config_UART\._0033_
*517 INST_config_UART\._0034_
*518 INST_config_UART\._0035_
*519 INST_config_UART\._0036_
*520 INST_config_UART\._0037_
*521 INST_config_UART\._0038_
*522 INST_config_UART\._0039_
*523 INST_config_UART\._0040_
*524 INST_config_UART\._0041_
*525 INST_config_UART\._0042_
*526 INST_config_UART\._0043_
*527 INST_config_UART\._0044_
*528 INST_config_UART\._0045_
*529 INST_config_UART\._0046_
*530 INST_config_UART\._0047_
*531 INST_config_UART\._0048_
*532 INST_config_UART\._0049_
*533 INST_config_UART\._0050_
*534 INST_config_UART\._0051_
*535 INST_config_UART\._0052_
*536 INST_config_UART\._0053_
*537 INST_config_UART\._0054_
*538 INST_config_UART\._0055_
*539 INST_config_UART\._0056_
*540 INST_config_UART\._0057_
*541 INST_config_UART\._0058_
*542 INST_config_UART\._0059_
*543 INST_config_UART\._0060_
*544 INST_config_UART\._0061_
*545 INST_config_UART\._0062_
*546 INST_config_UART\._0063_
*547 INST_config_UART\._0064_
*548 INST_config_UART\._0065_
*549 INST_config_UART\._0066_
*550 INST_config_UART\._0067_
*551 INST_config_UART\._0068_
*552 INST_config_UART\._0069_
*553 INST_config_UART\._0070_
*554 INST_config_UART\._0071_
*555 INST_config_UART\._0072_
*556 INST_config_UART\._0073_
*557 INST_config_UART\._0074_
*558 INST_config_UART\._0075_
*559 INST_config_UART\._0076_
*560 INST_config_UART\._0077_
*561 INST_config_UART\._0078_
*562 INST_config_UART\._0079_
*563 INST_config_UART\._0080_
*564 INST_config_UART\._0081_
*565 INST_config_UART\._0082_
*566 INST_config_UART\._0083_
*567 INST_config_UART\._0084_
*568 INST_config_UART\._0085_
*569 INST_config_UART\._0086_
*570 INST_config_UART\._0087_
*571 INST_config_UART\._0088_
*572 INST_config_UART\._0089_
*573 INST_config_UART\._0090_
*574 INST_config_UART\._0091_
*575 INST_config_UART\._0092_
*576 INST_config_UART\._0093_
*577 INST_config_UART\._0094_
*578 INST_config_UART\._0095_
*579 INST_config_UART\._0096_
*580 INST_config_UART\._0097_
*581 INST_config_UART\._0098_
*582 INST_config_UART\._0099_
*583 INST_config_UART\._0100_
*584 INST_config_UART\._0101_
*585 INST_config_UART\._0102_
*586 INST_config_UART\._0103_
*587 INST_config_UART\._0104_
*588 INST_config_UART\._0105_
*589 INST_config_UART\._0106_
*590 INST_config_UART\._0107_
*591 INST_config_UART\._0108_
*592 INST_config_UART\._0109_
*593 INST_config_UART\._0110_
*594 INST_config_UART\._0111_
*595 INST_config_UART\._0112_
*596 INST_config_UART\._0113_
*597 INST_config_UART\._0114_
*598 INST_config_UART\._0115_
*599 INST_config_UART\._0116_
*600 INST_config_UART\._0117_
*601 INST_config_UART\._0118_
*602 INST_config_UART\._0119_
*603 INST_config_UART\._0120_
*604 INST_config_UART\._0121_
*605 INST_config_UART\._0122_
*606 INST_config_UART\._0123_
*607 INST_config_UART\._0124_
*608 INST_config_UART\._0125_
*609 INST_config_UART\._0126_
*610 INST_config_UART\._0127_
*611 INST_config_UART\._0128_
*612 INST_config_UART\._0129_
*613 INST_config_UART\._0130_
*614 INST_config_UART\._0131_
*615 INST_config_UART\._0132_
*616 INST_config_UART\._0133_
*617 INST_config_UART\._0134_
*618 INST_config_UART\._0135_
*619 INST_config_UART\._0136_
*620 INST_config_UART\._0137_
*621 INST_config_UART\._0138_
*622 INST_config_UART\._0139_
*623 INST_config_UART\._0140_
*624 INST_config_UART\._0141_
*625 INST_config_UART\._0142_
*626 INST_config_UART\._0143_
*627 INST_config_UART\._0144_
*628 INST_config_UART\._0145_
*629 INST_config_UART\._0146_
*630 INST_config_UART\._0147_
*631 INST_config_UART\._0148_
*632 INST_config_UART\._0149_
*633 INST_config_UART\._0150_
*634 INST_config_UART\._0151_
*635 INST_config_UART\._0152_
*636 INST_config_UART\._0153_
*637 INST_config_UART\._0154_
*638 INST_config_UART\._0155_
*639 INST_config_UART\._0156_
*640 INST_config_UART\._0157_
*641 INST_config_UART\._0158_
*642 INST_config_UART\._0159_
*643 INST_config_UART\._0160_
*644 INST_config_UART\._0161_
*645 INST_config_UART\._0162_
*646 INST_config_UART\._0163_
*647 INST_config_UART\._0164_
*648 INST_config_UART\._0165_
*649 INST_config_UART\._0166_
*650 INST_config_UART\._0167_
*651 INST_config_UART\._0168_
*652 INST_config_UART\._0169_
*653 INST_config_UART\._0170_
*654 INST_config_UART\._0171_
*655 INST_config_UART\._0172_
*656 INST_config_UART\._0173_
*657 INST_config_UART\._0174_
*658 INST_config_UART\._0175_
*659 INST_config_UART\._0176_
*660 INST_config_UART\._0177_
*661 INST_config_UART\._0178_
*662 INST_config_UART\._0179_
*663 INST_config_UART\._0180_
*664 INST_config_UART\._0181_
*665 INST_config_UART\._0182_
*666 INST_config_UART\._0183_
*667 INST_config_UART\._0184_
*668 INST_config_UART\._0185_
*669 INST_config_UART\._0186_
*670 INST_config_UART\._0187_
*671 INST_config_UART\._0188_
*672 INST_config_UART\._0189_
*673 INST_config_UART\._0190_
*674 INST_config_UART\._0191_
*675 INST_config_UART\._0192_
*676 INST_config_UART\._0193_
*677 INST_config_UART\._0194_
*678 INST_config_UART\._0195_
*679 INST_config_UART\._0196_
*680 INST_config_UART\._0197_
*681 INST_config_UART\._0198_
*682 INST_config_UART\._0199_
*683 INST_config_UART\._0200_
*684 INST_config_UART\._0201_
*685 INST_config_UART\._0202_
*686 INST_config_UART\._0203_
*687 INST_config_UART\._0204_
*688 INST_config_UART\._0205_
*689 INST_config_UART\._0206_
*690 INST_config_UART\._0207_
*691 INST_config_UART\._0208_
*692 INST_config_UART\._0209_
*693 INST_config_UART\._0210_
*694 INST_config_UART\._0211_
*695 INST_config_UART\._0212_
*696 INST_config_UART\._0213_
*697 INST_config_UART\._0214_
*698 INST_config_UART\._0215_
*699 INST_config_UART\._0216_
*700 INST_config_UART\._0217_
*701 INST_config_UART\._0218_
*702 INST_config_UART\._0219_
*703 INST_config_UART\._0220_
*704 INST_config_UART\._0221_
*705 INST_config_UART\._0222_
*706 INST_config_UART\._0223_
*707 INST_config_UART\._0224_
*708 INST_config_UART\._0225_
*709 INST_config_UART\._0226_
*710 INST_config_UART\._0227_
*711 INST_config_UART\._0228_
*712 INST_config_UART\._0229_
*713 INST_config_UART\._0230_
*714 INST_config_UART\._0231_
*715 INST_config_UART\._0232_
*716 INST_config_UART\._0233_
*717 INST_config_UART\._0234_
*718 INST_config_UART\._0235_
*719 INST_config_UART\._0236_
*720 INST_config_UART\._0237_
*721 INST_config_UART\._0238_
*722 INST_config_UART\._0239_
*723 INST_config_UART\._0240_
*724 INST_config_UART\._0241_
*725 INST_config_UART\._0242_
*726 INST_config_UART\._0243_
*727 INST_config_UART\._0244_
*728 INST_config_UART\._0245_
*729 INST_config_UART\._0246_
*730 INST_config_UART\._0247_
*731 INST_config_UART\._0248_
*732 INST_config_UART\._0249_
*733 INST_config_UART\._0250_
*734 INST_config_UART\._0251_
*735 INST_config_UART\._0252_
*736 INST_config_UART\._0253_
*737 INST_config_UART\._0254_
*738 INST_config_UART\._0255_
*739 INST_config_UART\._0256_
*740 INST_config_UART\._0257_
*741 INST_config_UART\._0258_
*742 INST_config_UART\._0259_
*743 INST_config_UART\._0260_
*744 INST_config_UART\._0261_
*745 INST_config_UART\._0262_
*746 INST_config_UART\._0263_
*747 INST_config_UART\._0264_
*748 INST_config_UART\._0265_
*749 INST_config_UART\._0266_
*750 INST_config_UART\._0267_
*751 INST_config_UART\._0268_
*752 INST_config_UART\._0269_
*753 INST_config_UART\._0270_
*754 INST_config_UART\._0271_
*755 INST_config_UART\._0272_
*756 INST_config_UART\._0273_
*757 INST_config_UART\._0274_
*758 INST_config_UART\._0275_
*759 INST_config_UART\._0276_
*760 INST_config_UART\._0277_
*761 INST_config_UART\._0278_
*762 INST_config_UART\._0279_
*763 INST_config_UART\._0280_
*764 INST_config_UART\._0281_
*765 INST_config_UART\._0282_
*766 INST_config_UART\._0283_
*767 INST_config_UART\._0284_
*768 INST_config_UART\._0285_
*769 INST_config_UART\._0286_
*770 INST_config_UART\._0287_
*771 INST_config_UART\._0288_
*772 INST_config_UART\._0289_
*773 INST_config_UART\._0290_
*774 INST_config_UART\._0291_
*775 INST_config_UART\._0292_
*776 INST_config_UART\._0293_
*777 INST_config_UART\._0294_
*778 INST_config_UART\._0295_
*779 INST_config_UART\._0296_
*780 INST_config_UART\._0297_
*781 INST_config_UART\._0298_
*782 INST_config_UART\._0299_
*783 INST_config_UART\._0300_
*784 INST_config_UART\._0301_
*785 INST_config_UART\._0302_
*786 INST_config_UART\._0303_
*787 INST_config_UART\._0304_
*788 INST_config_UART\._0305_
*789 INST_config_UART\._0306_
*790 INST_config_UART\._0307_
*791 INST_config_UART\._0308_
*792 INST_config_UART\._0309_
*793 INST_config_UART\._0310_
*794 INST_config_UART\._0311_
*795 INST_config_UART\._0312_
*796 INST_config_UART\._0313_
*797 INST_config_UART\._0314_
*798 INST_config_UART\._0315_
*799 INST_config_UART\._0316_
*800 INST_config_UART\._0317_
*801 INST_config_UART\._0318_
*802 INST_config_UART\._0319_
*803 INST_config_UART\._0320_
*804 INST_config_UART\._0321_
*805 INST_config_UART\._0322_
*806 INST_config_UART\._0323_
*807 INST_config_UART\._0324_
*808 INST_config_UART\._0325_
*809 INST_config_UART\._0326_
*810 INST_config_UART\._0327_
*811 INST_config_UART\._0328_
*812 INST_config_UART\._0329_
*813 INST_config_UART\._0330_
*814 INST_config_UART\._0331_
*815 INST_config_UART\._0332_
*816 INST_config_UART\._0333_
*817 INST_config_UART\._0334_
*818 INST_config_UART\._0335_
*819 INST_config_UART\._0336_
*820 INST_config_UART\._0337_
*821 INST_config_UART\._0338_
*822 INST_config_UART\._0339_
*823 INST_config_UART\._0340_
*824 INST_config_UART\._0341_
*825 INST_config_UART\._0342_
*826 INST_config_UART\._0343_
*827 INST_config_UART\._0344_
*828 INST_config_UART\._0345_
*829 INST_config_UART\._0346_
*830 INST_config_UART\._0347_
*831 INST_config_UART\._0348_
*832 INST_config_UART\._0349_
*833 INST_config_UART\._0350_
*834 INST_config_UART\._0351_
*835 INST_config_UART\._0352_
*836 INST_config_UART\._0353_
*837 INST_config_UART\._0354_
*838 INST_config_UART\._0355_
*839 INST_config_UART\._0356_
*840 INST_config_UART\._0357_
*841 INST_config_UART\._0358_
*842 INST_config_UART\._0359_
*843 INST_config_UART\._0360_
*844 INST_config_UART\._0361_
*845 INST_config_UART\._0362_
*846 INST_config_UART\._0363_
*847 INST_config_UART\._0364_
*848 INST_config_UART\._0365_
*849 INST_config_UART\._0366_
*850 INST_config_UART\._0367_
*851 INST_config_UART\._0368_
*852 INST_config_UART\._0369_
*853 INST_config_UART\._0370_
*854 INST_config_UART\._0371_
*855 INST_config_UART\._0372_
*856 INST_config_UART\._0373_
*857 INST_config_UART\._0374_
*858 INST_config_UART\._0375_
*859 INST_config_UART\._0376_
*860 INST_config_UART\._0377_
*861 INST_config_UART\._0378_
*862 INST_config_UART\._0379_
*863 INST_config_UART\._0380_
*864 INST_config_UART\._0381_
*865 INST_config_UART\._0382_
*866 INST_config_UART\._0383_
*867 INST_config_UART\._0384_
*868 INST_config_UART\._0385_
*869 INST_config_UART\._0386_
*870 INST_config_UART\._0387_
*871 INST_config_UART\._0388_
*872 INST_config_UART\._0389_
*873 INST_config_UART\._0390_
*874 INST_config_UART\._0391_
*875 INST_config_UART\._0392_
*876 INST_config_UART\._0393_
*877 INST_config_UART\._0394_
*878 INST_config_UART\._0395_
*879 INST_config_UART\._0396_
*880 INST_config_UART\._0397_
*881 INST_config_UART\._0398_
*882 INST_config_UART\._0399_
*883 INST_config_UART\._0400_
*884 INST_config_UART\._0401_
*885 INST_config_UART\._0402_
*886 INST_config_UART\._0403_
*887 INST_config_UART\._0404_
*888 INST_config_UART\._0405_
*889 INST_config_UART\._0406_
*890 INST_config_UART\._0407_
*891 INST_config_UART\._0408_
*892 INST_config_UART\._0409_
*893 INST_config_UART\._0410_
*894 INST_config_UART\._0411_
*895 INST_config_UART\._0412_
*896 INST_config_UART\._0413_
*897 INST_config_UART\._0414_
*898 INST_config_UART\._0415_
*899 INST_config_UART\._0416_
*900 INST_config_UART\._0417_
*901 INST_config_UART\._0418_
*902 INST_config_UART\._0419_
*903 INST_config_UART\._0420_
*904 INST_config_UART\._0421_
*905 INST_config_UART\._0422_
*906 INST_config_UART\._0423_
*907 INST_config_UART\._0424_
*908 INST_config_UART\._0425_
*909 INST_config_UART\._0426_
*910 INST_config_UART\._0427_
*911 INST_config_UART\._0428_
*912 INST_config_UART\._0429_
*913 INST_config_UART\._0430_
*914 INST_config_UART\._0431_
*915 INST_config_UART\._0432_
*916 INST_config_UART\._0433_
*917 INST_config_UART\._0434_
*918 INST_config_UART\._0435_
*919 INST_config_UART\._0436_
*920 INST_config_UART\._0437_
*921 INST_config_UART\._0438_
*922 INST_config_UART\._0439_
*923 INST_config_UART\._0440_
*924 INST_config_UART\._0441_
*925 INST_config_UART\._0442_
*926 INST_config_UART\._0443_
*927 INST_config_UART\._0444_
*928 INST_config_UART\._0445_
*929 INST_config_UART\._0446_
*930 INST_config_UART\._0447_
*931 INST_config_UART\._0448_
*932 INST_config_UART\._0449_
*933 INST_config_UART\._0450_
*934 INST_config_UART\._0451_
*935 INST_config_UART\._0452_
*936 INST_config_UART\._0453_
*937 INST_config_UART\._0454_
*938 INST_config_UART\._0455_
*939 INST_config_UART\._0456_
*940 INST_config_UART\._0457_
*941 INST_config_UART\._0458_
*942 INST_config_UART\._0459_
*943 INST_config_UART\._0460_
*944 INST_config_UART\._0461_
*945 INST_config_UART\._0462_
*946 INST_config_UART\._0463_
*947 INST_config_UART\._0464_
*948 INST_config_UART\._0465_
*949 INST_config_UART\._0466_
*950 INST_config_UART\._0467_
*951 INST_config_UART\._0468_
*952 INST_config_UART\._0469_
*953 INST_config_UART\._0470_
*954 INST_config_UART\._0471_