*SPEF "ieee 1481-1999"
*DESIGN "N_term_single"
*DATE "11:11:11 Fri 11 11, 1111"
*VENDOR "OpenRCX"
*PROGRAM "Parallel Extraction"
*VERSION "1.0"
*DESIGN_FLOW "NAME_SCOPE LOCAL" "PIN_CAP NONE"
*DIVIDER /
*DELIMITER :
*BUS_DELIMITER []
*T_UNIT 1 NS
*C_UNIT 1 PF
*R_UNIT 1 OHM
*L_UNIT 1 HENRY

*NAME_MAP
*1 Ci
*2 FrameStrobe[0]
*3 FrameStrobe[10]
*4 FrameStrobe[11]
*5 FrameStrobe[12]
*6 FrameStrobe[13]
*7 FrameStrobe[14]
*8 FrameStrobe[15]
*9 FrameStrobe[16]
*10 FrameStrobe[17]
*11 FrameStrobe[18]
*12 FrameStrobe[19]
*13 FrameStrobe[1]
*14 FrameStrobe[2]
*15 FrameStrobe[3]
*16 FrameStrobe[4]
*17 FrameStrobe[5]
*18 FrameStrobe[6]
*19 FrameStrobe[7]
*20 FrameStrobe[8]
*21 FrameStrobe[9]
*22 FrameStrobe_O[0]
*23 FrameStrobe_O[10]
*24 FrameStrobe_O[11]
*25 FrameStrobe_O[12]
*26 FrameStrobe_O[13]
*27 FrameStrobe_O[14]
*28 FrameStrobe_O[15]
*29 FrameStrobe_O[16]
*30 FrameStrobe_O[17]
*31 FrameStrobe_O[18]
*32 FrameStrobe_O[19]
*33 FrameStrobe_O[1]
*34 FrameStrobe_O[2]
*35 FrameStrobe_O[3]
*36 FrameStrobe_O[4]
*37 FrameStrobe_O[5]
*38 FrameStrobe_O[6]
*39 FrameStrobe_O[7]
*40 FrameStrobe_O[8]
*41 FrameStrobe_O[9]
*42 N1END[0]
*43 N1END[1]
*44 N1END[2]
*45 N1END[3]
*46 N2END[0]
*47 N2END[1]
*48 N2END[2]
*49 N2END[3]
*50 N2END[4]
*51 N2END[5]
*52 N2END[6]
*53 N2END[7]
*54 N2MID[0]
*55 N2MID[1]
*56 N2MID[2]
*57 N2MID[3]
*58 N2MID[4]
*59 N2MID[5]
*60 N2MID[6]
*61 N2MID[7]
*62 N4END[0]
*63 N4END[10]
*64 N4END[11]
*65 N4END[12]
*66 N4END[13]
*67 N4END[14]
*68 N4END[15]
*69 N4END[1]
*70 N4END[2]
*71 N4END[3]
*72 N4END[4]
*73 N4END[5]
*74 N4END[6]
*75 N4END[7]
*76 N4END[8]
*77 N4END[9]
*78 NN4END[0]
*79 NN4END[10]
*80 NN4END[11]
*81 NN4END[12]
*82 NN4END[13]
*83 NN4END[14]
*84 NN4END[15]
*85 NN4END[1]
*86 NN4END[2]
*87 NN4END[3]
*88 NN4END[4]
*89 NN4END[5]
*90 NN4END[6]
*91 NN4END[7]
*92 NN4END[8]
*93 NN4END[9]
*94 S1BEG[0]
*95 S1BEG[1]
*96 S1BEG[2]
*97 S1BEG[3]
*98 S2BEG[0]
*99 S2BEG[1]
*100 S2BEG[2]
*101 S2BEG[3]
*102 S2BEG[4]
*103 S2BEG[5]
*104 S2BEG[6]
*105 S2BEG[7]
*106 S2BEGb[0]
*107 S2BEGb[1]
*108 S2BEGb[2]
*109 S2BEGb[3]
*110 S2BEGb[4]
*111 S2BEGb[5]
*112 S2BEGb[6]
*113 S2BEGb[7]
*114 S4BEG[0]
*115 S4BEG[10]
*116 S4BEG[11]
*117 S4BEG[12]
*118 S4BEG[13]
*119 S4BEG[14]
*120 S4BEG[15]
*121 S4BEG[1]
*122 S4BEG[2]
*123 S4BEG[3]
*124 S4BEG[4]
*125 S4BEG[5]
*126 S4BEG[6]
*127 S4BEG[7]
*128 S4BEG[8]
*129 S4BEG[9]
*130 SS4BEG[0]
*131 SS4BEG[10]
*132 SS4BEG[11]
*133 SS4BEG[12]
*134 SS4BEG[13]
*135 SS4BEG[14]
*136 SS4BEG[15]
*137 SS4BEG[1]
*138 SS4BEG[2]
*139 SS4BEG[3]
*140 SS4BEG[4]
*141 SS4BEG[5]
*142 SS4BEG[6]
*143 SS4BEG[7]
*144 SS4BEG[8]
*145 SS4BEG[9]
*146 UserCLK
*147 UserCLKo
*150 net1
*151 net10
*152 net100
*153 net101
*154 net102
*155 net103
*156 net104
*157 net105
*158 net106
*159 net107
*160 net108
*161 net109
*162 net11
*163 net110
*164 net111
*165 net112
*166 net113
*167 net114
*168 net115
*169 net116
*170 net117
*171 net118
*172 net119
*173 net12
*174 net120
*175 net121
*176 net122
*177 net123
*178 net124
*179 net125
*180 net126
*181 net127
*182 net128
*183 net129
*184 net13
*185 net130
*186 net131
*187 net132
*188 net133
*189 net134
*190 net135
*191 net136
*192 net137
*193 net138
*194 net139
*195 net14
*196 net140
*197 net141
*198 net142
*199 net143
*200 net144
*201 net145
*202 net146
*203 net15
*204 net16
*205 net17
*206 net18
*207 net19
*208 net2
*209 net20
*210 net21
*211 net22
*212 net23
*213 net24
*214 net25
*215 net26
*216 net27
*217 net28
*218 net29
*219 net3
*220 net30
*221 net31
*222 net32
*223 net33
*224 net34
*225 net35
*226 net36
*227 net37
*228 net38
*229 net39
*230 net4
*231 net40
*232 net41
*233 net42
*234 net43
*235 net44
*236 net45
*237 net46
*238 net47
*239 net48
*240 net49
*241 net5
*242 net50
*243 net51
*244 net52
*245 net53
*246 net54
*247 net55
*248 net56
*249 net57
*250 net58
*251 net59
*252 net6
*253 net60
*254 net61
*255 net62
*256 net63
*257 net64
*258 net65
*259 net66
*260 net67
*261 net68
*262 net69
*263 net7
*264 net70
*265 net71
*266 net72
*267 net73
*268 net74
*269 net75
*270 net76
*271 net77
*272 net78
*273 net79
*274 net8
*275 net80
*276 net81
*277 net82
*278 net83
*279 net84
*280 net85
*281 net86
*282 net87
*283 net88
*284 net89
*285 net9
*286 net90
*287 net91
*288 net92
*289 net93
*290 net94
*291 net95
*292 net96
*293 net97
*294 net98
*295 net99
*296 ANTENNA_1
*297 FILLER_0_0_15
*298 FILLER_0_0_225
*299 FILLER_0_0_251
*300 FILLER_0_0_27
*301 FILLER_0_0_29
*302 FILLER_0_0_3
*303 FILLER_0_0_391
*304 FILLER_0_0_433
*305 FILLER_0_0_445
*306 FILLER_0_0_452
*307 FILLER_0_1_110
*308 FILLER_0_1_113
*309 FILLER_0_1_125
*310 FILLER_0_1_140
*311 FILLER_0_1_15
*312 FILLER_0_1_169
*313 FILLER_0_1_225
*314 FILLER_0_1_27
*315 FILLER_0_1_278
*316 FILLER_0_1_3
*317 FILLER_0_1_335
*318 FILLER_0_1_387
*319 FILLER_0_1_39
*320 FILLER_0_1_391
*321 FILLER_0_1_393
*322 FILLER_0_1_397
*323 FILLER_0_1_404
*324 FILLER_0_1_412
*325 FILLER_0_1_416
*326 FILLER_0_1_428
*327 FILLER_0_1_440
*328 FILLER_0_1_449
*329 FILLER_0_1_457
*330 FILLER_0_1_51
*331 FILLER_0_1_55
*332 FILLER_0_1_57
*333 FILLER_0_1_62
*334 FILLER_0_1_74
*335 FILLER_0_1_86
*336 FILLER_0_1_98
*337 FILLER_0_2_109
*338 FILLER_0_2_121
*339 FILLER_0_2_133
*340 FILLER_0_2_139
*341 FILLER_0_2_141
*342 FILLER_0_2_15
*343 FILLER_0_2_153
*344 FILLER_0_2_165
*345 FILLER_0_2_177
*346 FILLER_0_2_194
*347 FILLER_0_2_200
*348 FILLER_0_2_207
*349 FILLER_0_2_233
*350 FILLER_0_2_237
*351 FILLER_0_2_259
*352 FILLER_0_2_27
*353 FILLER_0_2_285
*354 FILLER_0_2_29
*355 FILLER_0_2_3
*356 FILLER_0_2_301
*357 FILLER_0_2_306
*358 FILLER_0_2_309
*359 FILLER_0_2_321
*360 FILLER_0_2_333
*361 FILLER_0_2_341
*362 FILLER_0_2_354
*363 FILLER_0_2_362
*364 FILLER_0_2_365
*365 FILLER_0_2_377
*366 FILLER_0_2_389
*367 FILLER_0_2_401
*368 FILLER_0_2_41
*369 FILLER_0_2_413
*370 FILLER_0_2_419
*371 FILLER_0_2_421
*372 FILLER_0_2_433
*373 FILLER_0_2_445
*374 FILLER_0_2_457
*375 FILLER_0_2_53
*376 FILLER_0_2_65
*377 FILLER_0_2_77
*378 FILLER_0_2_83
*379 FILLER_0_2_85
*380 FILLER_0_2_97
*381 FILLER_0_3_105
*382 FILLER_0_3_111
*383 FILLER_0_3_113
*384 FILLER_0_3_125
*385 FILLER_0_3_137
*386 FILLER_0_3_149
*387 FILLER_0_3_15
*388 FILLER_0_3_161
*389 FILLER_0_3_167
*390 FILLER_0_3_169
*391 FILLER_0_3_181
*392 FILLER_0_3_193
*393 FILLER_0_3_205
*394 FILLER_0_3_217
*395 FILLER_0_3_223
*396 FILLER_0_3_225
*397 FILLER_0_3_237
*398 FILLER_0_3_249
*399 FILLER_0_3_261
*400 FILLER_0_3_27
*401 FILLER_0_3_273
*402 FILLER_0_3_279
*403 FILLER_0_3_281
*404 FILLER_0_3_293
*405 FILLER_0_3_3
*406 FILLER_0_3_305
*407 FILLER_0_3_317
*408 FILLER_0_3_329
*409 FILLER_0_3_335
*410 FILLER_0_3_337
*411 FILLER_0_3_349
*412 FILLER_0_3_361
*413 FILLER_0_3_373
*414 FILLER_0_3_385
*415 FILLER_0_3_39
*416 FILLER_0_3_391
*417 FILLER_0_3_393
*418 FILLER_0_3_405
*419 FILLER_0_3_417
*420 FILLER_0_3_429
*421 FILLER_0_3_441
*422 FILLER_0_3_447
*423 FILLER_0_3_449
*424 FILLER_0_3_457
*425 FILLER_0_3_51
*426 FILLER_0_3_55
*427 FILLER_0_3_57
*428 FILLER_0_3_69
*429 FILLER_0_3_81
*430 FILLER_0_3_93
*431 FILLER_0_4_109
*432 FILLER_0_4_121
*433 FILLER_0_4_133
*434 FILLER_0_4_139
*435 FILLER_0_4_141
*436 FILLER_0_4_15
*437 FILLER_0_4_153
*438 FILLER_0_4_165
*439 FILLER_0_4_177
*440 FILLER_0_4_189
*441 FILLER_0_4_195
*442 FILLER_0_4_197
*443 FILLER_0_4_209
*444 FILLER_0_4_221
*445 FILLER_0_4_233
*446 FILLER_0_4_245
*447 FILLER_0_4_251
*448 FILLER_0_4_253
*449 FILLER_0_4_265
*450 FILLER_0_4_27
*451 FILLER_0_4_277
*452 FILLER_0_4_289
*453 FILLER_0_4_29
*454 FILLER_0_4_3
*455 FILLER_0_4_301
*456 FILLER_0_4_307
*457 FILLER_0_4_309
*458 FILLER_0_4_321
*459 FILLER_0_4_333
*460 FILLER_0_4_345
*461 FILLER_0_4_357
*462 FILLER_0_4_363
*463 FILLER_0_4_365
*464 FILLER_0_4_377
*465 FILLER_0_4_389
*466 FILLER_0_4_401
*467 FILLER_0_4_41
*468 FILLER_0_4_413
*469 FILLER_0_4_419
*470 FILLER_0_4_421
*471 FILLER_0_4_433
*472 FILLER_0_4_445
*473 FILLER_0_4_457
*474 FILLER_0_4_53
*475 FILLER_0_4_65
*476 FILLER_0_4_77
*477 FILLER_0_4_83
*478 FILLER_0_4_85
*479 FILLER_0_4_97
*480 FILLER_0_5_105
*481 FILLER_0_5_111
*482 FILLER_0_5_113
*483 FILLER_0_5_125
*484 FILLER_0_5_137
*485 FILLER_0_5_149
*486 FILLER_0_5_15
*487 FILLER_0_5_157
*488 FILLER_0_5_162
*489 FILLER_0_5_167
*490 FILLER_0_5_169
*491 FILLER_0_5_181
*492 FILLER_0_5_193
*493 FILLER_0_5_205
*494 FILLER_0_5_217
*495 FILLER_0_5_223
*496 FILLER_0_5_225
*497 FILLER_0_5_237
*498 FILLER_0_5_249
*499 FILLER_0_5_261
*500 FILLER_0_5_27
*501 FILLER_0_5_273
*502 FILLER_0_5_279
*503 FILLER_0_5_281
*504 FILLER_0_5_293
*505 FILLER_0_5_3
*506 FILLER_0_5_305
*507 FILLER_0_5_317
*508 FILLER_0_5_329
*509 FILLER_0_5_335
*510 FILLER_0_5_337
*511 FILLER_0_5_349
*512 FILLER_0_5_361
*513 FILLER_0_5_373
*514 FILLER_0_5_385
*515 FILLER_0_5_39
*516 FILLER_0_5_391
*517 FILLER_0_5_393
*518 FILLER_0_5_405
*519 FILLER_0_5_417
*520 FILLER_0_5_429
*521 FILLER_0_5_441
*522 FILLER_0_5_447
*523 FILLER_0_5_449
*524 FILLER_0_5_457
*525 FILLER_0_5_51
*526 FILLER_0_5_55
*527 FILLER_0_5_57
*528 FILLER_0_5_69
*529 FILLER_0_5_81
*530 FILLER_0_5_93
*531 FILLER_0_6_109
*532 FILLER_0_6_121
*533 FILLER_0_6_133
*534 FILLER_0_6_139
*535 FILLER_0_6_141
*536 FILLER_0_6_15
*537 FILLER_0_6_153
*538 FILLER_0_6_165
*539 FILLER_0_6_177
*540 FILLER_0_6_189
*541 FILLER_0_6_195
*542 FILLER_0_6_197
*543 FILLER_0_6_209
*544 FILLER_0_6_221
*545 FILLER_0_6_233
*546 FILLER_0_6_245
*547 FILLER_0_6_251
*548 FILLER_0_6_253
*549 FILLER_0_6_260
*550 FILLER_0_6_27
*551 FILLER_0_6_272
*552 FILLER_0_6_284
*553 FILLER_0_6_29
*554 FILLER_0_6_296
*555 FILLER_0_6_3
*556 FILLER_0_6_309
*557 FILLER_0_6_321
*558 FILLER_0_6_333
*559 FILLER_0_6_345
*560 FILLER_0_6_357
*561 FILLER_0_6_363
*562 FILLER_0_6_365
*563 FILLER_0_6_377
*564 FILLER_0_6_389
*565 FILLER_0_6_401
*566 FILLER_0_6_41
*567 FILLER_0_6_413
*568 FILLER_0_6_419
*569 FILLER_0_6_421
*570 FILLER_0_6_433
*571 FILLER_0_6_445
*572 FILLER_0_6_457
*573 FILLER_0_6_53
*574 FILLER_0_6_65
*575 FILLER_0_6_77
*576 FILLER_0_6_83
*577 FILLER_0_6_85
*578 FILLER_0_6_97
*579 FILLER_0_7_105
*580 FILLER_0_7_111
*581 FILLER_0_7_113
*582 FILLER_0_7_125
*583 FILLER_0_7_137
*584 FILLER_0_7_149
*585 FILLER_0_7_15
*586 FILLER_0_7_161
*587 FILLER_0_7_167
*588 FILLER_0_7_169
*589 FILLER_0_7_181
*590 FILLER_0_7_193
*591 FILLER_0_7_205
*592 FILLER_0_7_217
*593 FILLER_0_7_223
*594 FILLER_0_7_225
*595 FILLER_0_7_237
*596 FILLER_0_7_249
*597 FILLER_0_7_261
*598 FILLER_0_7_27
*599 FILLER_0_7_273
*600 FILLER_0_7_279
*601 FILLER_0_7_281
*602 FILLER_0_7_293
*603 FILLER_0_7_3
*604 FILLER_0_7_305
*605 FILLER_0_7_317
*606 FILLER_0_7_329
*607 FILLER_0_7_335
*608 FILLER_0_7_337
*609 FILLER_0_7_349
*610 FILLER_0_7_361
*611 FILLER_0_7_373
*612 FILLER_0_7_385
*613 FILLER_0_7_39
*614 FILLER_0_7_391
*615 FILLER_0_7_393
*616 FILLER_0_7_405
*617 FILLER_0_7_417
*618 FILLER_0_7_429
*619 FILLER_0_7_441
*620 FILLER_0_7_447
*621 FILLER_0_7_449
*622 FILLER_0_7_457
*623 FILLER_0_7_51
*624 FILLER_0_7_55
*625 FILLER_0_7_57
*626 FILLER_0_7_69
*627 FILLER_0_7_81
*628 FILLER_0_7_93
*629 FILLER_0_8_109
*630 FILLER_0_8_121
*631 FILLER_0_8_133
*632 FILLER_0_8_139
*633 FILLER_0_8_141
*634 FILLER_0_8_15
*635 FILLER_0_8_153
*636 FILLER_0_8_165
*637 FILLER_0_8_177
*638 FILLER_0_8_189
*639 FILLER_0_8_195
*640 FILLER_0_8_197
*641 FILLER_0_8_209
*642 FILLER_0_8_221
*643 FILLER_0_8_236
*644 FILLER_0_8_248
*645 FILLER_0_8_253
*646 FILLER_0_8_265
*647 FILLER_0_8_27
*648 FILLER_0_8_277
*649 FILLER_0_8_289
*650 FILLER_0_8_29
*651 FILLER_0_8_3
*652 FILLER_0_8_301
*653 FILLER_0_8_307
*654 FILLER_0_8_309
*655 FILLER_0_8_321
*656 FILLER_0_8_333
*657 FILLER_0_8_345
*658 FILLER_0_8_357
*659 FILLER_0_8_363
*660 FILLER_0_8_365
*661 FILLER_0_8_377
*662 FILLER_0_8_389
*663 FILLER_0_8_401
*664 FILLER_0_8_41
*665 FILLER_0_8_413
*666 FILLER_0_8_419
*667 FILLER_0_8_421
*668 FILLER_0_8_433
*669 FILLER_0_8_445
*670 FILLER_0_8_457
*671 FILLER_0_8_53
*672 FILLER_0_8_65
*673 FILLER_0_8_77
*674 FILLER_0_8_83
*675 FILLER_0_8_85
*676 FILLER_0_8_97
*677 FILLER_0_9_111
*678 FILLER_0_9_113
*679 FILLER_0_9_122
*680 FILLER_0_9_134
*681 FILLER_0_9_147
*682 FILLER_0_9_159
*683 FILLER_0_9_169
*684 FILLER_0_9_181
*685 FILLER_0_9_194
*686 FILLER_0_9_197
*687 FILLER_0_9_205
*688 FILLER_0_9_21
*689 FILLER_0_9_217
*690 FILLER_0_9_223
*691 FILLER_0_9_225
*692 FILLER_0_9_240
*693 FILLER_0_9_253
*694 FILLER_0_9_260
*695 FILLER_0_9_27
*696 FILLER_0_9_272
*697 FILLER_0_9_290
*698 FILLER_0_9_298
*699 FILLER_0_9_306
*700 FILLER_0_9_309
*701 FILLER_0_9_321
*702 FILLER_0_9_329
*703 FILLER_0_9_335
*704 FILLER_0_9_337
*705 FILLER_0_9_345
*706 FILLER_0_9_35
*707 FILLER_0_9_352
*708 FILLER_0_9_365
*709 FILLER_0_9_375
*710 FILLER_0_9_387
*711 FILLER_0_9_391
*712 FILLER_0_9_402
*713 FILLER_0_9_414
*714 FILLER_0_9_427
*715 FILLER_0_9_435
*716 FILLER_0_9_444
*717 FILLER_0_9_449
*718 FILLER_0_9_53
*719 FILLER_0_9_57
*720 FILLER_0_9_69
*721 FILLER_0_9_76
*722 FILLER_0_9_85
*723 FILLER_0_9_9
*724 FILLER_0_9_99
*725 PHY_0
*726 PHY_1
*727 PHY_10
*728 PHY_11
*729 PHY_12
*730 PHY_13
*731 PHY_14
*732 PHY_15
*733 PHY_16
*734 PHY_17
*735 PHY_18
*736 PHY_19
*737 PHY_2
*738 PHY_3
*739 PHY_4
*740 PHY_5
*741 PHY_6
*742 PHY_7
*743 PHY_8
*744 PHY_9
*745 TAP_100
*746 TAP_101
*747 TAP_102
*748 TAP_103
*749 TAP_104
*750 TAP_105
*751 TAP_106
*752 TAP_107
*753 TAP_108
*754 TAP_109
*755 TAP_110
*756 TAP_111
*757 TAP_112
*758 TAP_113
*759 TAP_114
*760 TAP_115
*761 TAP_20
*762 TAP_21
*763 TAP_22
*764 TAP_23
*765 TAP_24
*766 TAP_25
*767 TAP_26
*768 TAP_27
*769 TAP_28
*770 TAP_29
*771 TAP_30
*772 TAP_31
*773 TAP_32
*774 TAP_33
*775 TAP_34
*776 TAP_35
*777 TAP_36
*778 TAP_37
*779 TAP_38
*780 TAP_39
*781 TAP_40
*782 TAP_41
*783 TAP_42
*784 TAP_43
*785 TAP_44
*786 TAP_45
*787 TAP_46
*788 TAP_47
*789 TAP_48
*790 TAP_49
*791 TAP_50
*792 TAP_51
*793 TAP_52
*794 TAP_53
*795 TAP_54
*796 TAP_55
*797 TAP_56
*798 TAP_57
*799 TAP_58
*800 TAP_59
*801 TAP_60
*802 TAP_61
*803 TAP_62
*804 TAP_63
*805 TAP_64
*806 TAP_65
*807 TAP_66
*808 TAP_67
*809 TAP_68
*810 TAP_69
*811 TAP_70
*812 TAP_71
*813 TAP_72
*814 TAP_73
*815 TAP_74
*816 TAP_75
*817 TAP_76
*818 TAP_77
*819 TAP_78
*820 TAP_79
*821 TAP_80
*822 TAP_81
*823 TAP_82
*824 TAP_83
*825 TAP_84
*826 TAP_85
*827 TAP_86
*828 TAP_87
*829 TAP_88
*830 TAP_89
*831 TAP_90
*832 TAP_91
*833 TAP_92
*834 TAP_93
*835 TAP_94
*836 TAP_95
*837 TAP_96
*838 TAP_97
*839 TAP_98
*840 TAP_99
*841 _00_
*842 _01_
*843 _02_
*844 _03_
*845 _04_
*846 _05_
*847 _06_
*848 _07_
*849 _08_
*850 _09_
*851 _10_
*852 _11_
*853 _12_
*854 _13_
*855 _14_
*856 _15_
*857 _16_
*858 _17_
*859 _18_
*860 _19_
*861 _20_
*862 _21_
*863 _22_
*864 _23_
*865 _24_
*866 _25_
*867 _26_
*868 _27_
*869 _28_
*870 _29_
*871 _30_
*872 _31_
*873 _32_
*874 _33_
*875 _34_
*876 _35_
*877 _36_
*878 _37_
*879 _38_
*880 _39_
*881 _40_
*882 _41_
*883 _42_
*884 _43_
*885 _44_
*886 _45_
*887 _46_
*888 _47_
*889 _48_
*890 _49_
*891 _50_
*892 _51_
*893 _52_
*894 _53_
*895 _54_
*896 _55_
*897 _56_
*898 _57_
*899 _58_
*900 _59_
*901 _60_
*902 _61_
*903 _62_
*904 _63_
*905 _64_
*906 _65_
*907 _66_
*908 _67_
*909 _68_
*910 _69_
*911 _70_
*912 _71_
*913 _72_
*914 input1
*915 input10
*916 input11
*917 input12
*918 input13
*919 input14
*920 input15
*921 input16
*922 input17
*923 input18
*924 input19
*925 input2
*926 input20
*927 input21
*928 input22
*929 input23
*930 input24
*931 input25
*932 input26
*933 input27
*934 input28
*935 input29
*936 input3
*937 input30
*938 input31
*939 input32
*940 input33
*941 input34
*942 input35
*943 input36
*944 input37
*945 input38
*946 input39
*947 input4
*948 input40
*949 input41
*950 input42
*951 input43
*952 input44
*953 input45
*954 input46
*955 input47
*956 input48
*957 input49
*958 input5
*959 input50
*960 input51
*961 input52
*962 input53
*963 input54
*964 input55
*965 input56
*966 input57
*967 input58
*968 input59
*969 input6
*970 input60
*971 input61
*972 input62
*973 input63
*974 input64
*975 input65
*976 input66
*977 input67
*978 input68
*979 input69
*980 input7
*981 input70
*982 input71
*983 input72
*984 input73
*985 input8
*986 input9
*987 output100
*988 output101
*989 output102
*990 output103
*991 output104
*992 output105
*993 output106
*994 output107
*995 output108
*996 output109
*997 output110
*998 output111
*999 output112
*1000 output113
*1001 output114
*1002 output115
*1003 output116
*1004 output117
*1005 output118
*1006 output119
*1007 output120
*1008 output121
*1009 output122
*1010 output123
*1011 output124
*1012 output125
*1013 output126
*1014 output127
*1015 output128
*1016 output129
*1017 output130
*1018 output131
*1019 output132
*1020 output133
*1021 output134
*1022 output135
*1023 output136
*1024 output137
*1025 output138
*1026 output139
*1027 output140
*1028 output141
*1029 output142
*1030 output143
*1031 output144
*1032 output145
*1033 output146
*1034 output74
*1035 output75
*1036 output76
*1037 output77
*1038 output78
*1039 output79
*1040 output80
*1041 output81
*1042 output82
*1043 output83
*1044 output84
*1045 output85
*1046 output86
*1047 output87
*1048 output88
*1049 output89
*1050 output90
*1051 output91
*1052 output92
*1053 output93
*1054 output94
*1055 output95
*1056 output96
*1057 output97
*1058 output98
*1059 output99

*PORTS
Ci I
FrameStrobe[0] I
FrameStrobe[10] I
FrameStrobe[11] I
FrameStrobe[12] I
FrameStrobe[13] I
FrameStrobe[14] I
FrameStrobe[15] I
FrameStrobe[16] I
FrameStrobe[17] I
FrameStrobe[18] I
FrameStrobe[19] I
FrameStrobe[1] I
FrameStrobe[2] I
FrameStrobe[3] I
FrameStrobe[4] I
FrameStrobe[5] I
FrameStrobe[6] I
FrameStrobe[7] I
FrameStrobe[8] I
FrameStrobe[9] I
FrameStrobe_O[0] O
FrameStrobe_O[10] O
FrameStrobe_O[11] O
FrameStrobe_O[12] O
FrameStrobe_O[13] O
FrameStrobe_O[14] O
FrameStrobe_O[15] O
FrameStrobe_O[16] O
FrameStrobe_O[17] O
FrameStrobe_O[18] O
FrameStrobe_O[19] O
FrameStrobe_O[1] O
FrameStrobe_O[2] O
FrameStrobe_O[3] O
FrameStrobe_O[4] O
FrameStrobe_O[5] O
FrameStrobe_O[6] O
FrameStrobe_O[7] O
FrameStrobe_O[8] O
FrameStrobe_O[9] O
N1END[0] I
N1END[1] I
N1END[2] I
N1END[3] I
N2END[0] I
N2END[1] I
N2END[2] I
N2END[3] I
N2END[4] I
N2END[5] I
N2END[6] I
N2END[7] I
N2MID[0] I
N2MID[1] I
N2MID[2] I
N2MID[3] I
N2MID[4] I
N2MID[5] I
N2MID[6] I
N2MID[7] I
N4END[0] I
N4END[10] I
N4END[11] I
N4END[12] I
N4END[13] I
N4END[14] I
N4END[15] I
N4END[1] I
N4END[2] I
N4END[3] I
N4END[4] I
N4END[5] I
N4END[6] I
N4END[7] I
N4END[8] I
N4END[9] I
NN4END[0] I
NN4END[10] I
NN4END[11] I
NN4END[12] I
NN4END[13] I
NN4END[14] I
NN4END[15] I
NN4END[1] I
NN4END[2] I
NN4END[3] I
NN4END[4] I
NN4END[5] I
NN4END[6] I
NN4END[7] I
NN4END[8] I
NN4END[9] I
S1BEG[0] O
S1BEG[1] O
S1BEG[2] O
S1BEG[3] O
S2BEG[0] O
S2BEG[1] O
S2BEG[2] O
S2BEG[3] O
S2BEG[4] O
S2BEG[5] O
S2BEG[6] O
S2BEG[7] O
S2BEGb[0] O
S2BEGb[1] O
S2BEGb[2] O
S2BEGb[3] O
S2BEGb[4] O
S2BEGb[5] O
S2BEGb[6] O
S2BEGb[7] O
S4BEG[0] O
S4BEG[10] O
S4BEG[11] O
S4BEG[12] O
S4BEG[13] O
S4BEG[14] O
S4BEG[15] O
S4BEG[1] O
S4BEG[2] O
S4BEG[3] O
S4BEG[4] O
S4BEG[5] O
S4BEG[6] O
S4BEG[7] O
S4BEG[8] O
S4BEG[9] O
SS4BEG[0] O
SS4BEG[10] O
SS4BEG[11] O
SS4BEG[12] O
SS4BEG[13] O
SS4BEG[14] O
SS4BEG[15] O
SS4BEG[1] O
SS4BEG[2] O
SS4BEG[3] O
SS4BEG[4] O
SS4BEG[5] O
SS4BEG[6] O
SS4BEG[7] O
SS4BEG[8] O
SS4BEG[9] O
UserCLK I
UserCLKo O

*D_NET *2 0.00296887
*CONN
*P FrameStrobe[0] I
*I *914:A I *D sky130_fd_sc_hd__buf_1
*CAP
1 FrameStrobe[0] 0.000858869
2 *914:A 0
3 *2:13 0.000858869
4 *2:13 *910:A 9.67842e-05
5 *2:13 *13:9 0.000490502
6 *2:13 *15:17 0
7 *2:13 *135:10 0.000221997
8 *2:13 *146:15 5.50106e-05
9 *2:13 *173:8 0.000119313
10 *2:13 *203:12 0.000225399
11 *2:13 *219:16 0
12 *2:13 *241:32 4.21281e-05
*RES
1 FrameStrobe[0] *2:13 36.9364 
2 *2:13 *914:A 23 
*END

*D_NET *3 0.0020863
*CONN
*P FrameStrobe[10] I
*I *925:A I *D sky130_fd_sc_hd__buf_1
*CAP
1 FrameStrobe[10] 0.0005176
2 *925:A 0
3 *3:15 0.0005176
4 *3:15 *4:11 0.000384048
5 *3:15 *20:15 5.50106e-05
6 *3:15 *21:15 0.000472691
7 *3:15 *207:10 0.000139346
*RES
1 FrameStrobe[10] *3:15 31.965 
2 *3:15 *925:A 23 
*END

*D_NET *4 0.00221267
*CONN
*P FrameStrobe[11] I
*I *936:A I *D sky130_fd_sc_hd__buf_1
*CAP
1 FrameStrobe[11] 0.000575202
2 *936:A 0
3 *4:11 0.000575202
4 *4:11 *5:9 0.000292912
5 *4:11 *21:15 9.5877e-05
6 *4:11 *208:8 9.8203e-05
7 *4:11 *252:10 3.23857e-06
8 *4:11 *276:18 0.000187986
9 *3:15 *4:11 0.000384048
*RES
1 FrameStrobe[11] *4:11 32.7314 
2 *4:11 *936:A 23 
*END

*D_NET *5 0.00208946
*CONN
*P FrameStrobe[12] I
*I *947:A I *D sky130_fd_sc_hd__clkbuf_1
*CAP
1 FrameStrobe[12] 0.000495701
2 *947:A 0
3 *5:9 0.000495701
4 *5:9 *6:13 0.000325105
5 *5:9 *208:12 8.16253e-05
6 *5:9 *209:8 0.000110922
7 *5:9 *230:14 5.50106e-05
8 *5:9 *241:8 7.15126e-05
9 *5:9 *276:18 0.000125147
10 *5:9 *276:22 3.58262e-05
11 *4:11 *5:9 0.000292912
*RES
1 FrameStrobe[12] *5:9 31.965 
2 *5:9 *947:A 23 
*END

*D_NET *6 0.00201429
*CONN
*P FrameStrobe[13] I
*I *958:A I *D sky130_fd_sc_hd__clkbuf_1
*CAP
1 FrameStrobe[13] 0.00072524
2 *958:A 0
3 *6:13 0.00072524
4 *6:13 *7:15 0
5 *6:13 *208:12 0.00018042
6 *6:13 *209:8 5.21127e-05
7 *6:13 *219:8 0
8 *6:13 *241:8 6.17437e-06
9 *5:9 *6:13 0.000325105
*RES
1 FrameStrobe[13] *6:13 32.6071 
2 *6:13 *958:A 23 
*END

*D_NET *7 0.00207943
*CONN
*P FrameStrobe[14] I
*I *969:A I *D sky130_fd_sc_hd__clkbuf_1
*CAP
1 FrameStrobe[14] 0.000658509
2 *969:A 0
3 *7:15 0.000658509
4 *7:15 *849:A 9.5877e-05
5 *7:15 *8:19 0.000279067
6 *7:15 *9:13 0
7 *7:15 *10:9 0.000291593
8 *7:15 *219:8 0
9 *7:15 *274:10 9.5877e-05
10 *7:15 *276:8 0
11 *6:13 *7:15 0
*RES
1 FrameStrobe[14] *7:15 32.5657 
2 *7:15 *969:A 23 
*END

*D_NET *8 0.00222485
*CONN
*P FrameStrobe[15] I
*I *980:A I *D sky130_fd_sc_hd__clkbuf_1
*CAP
1 FrameStrobe[15] 0.000590683
2 *980:A 0
3 *8:19 0.000590683
4 *8:19 *9:13 0.000709409
5 *8:19 *10:9 0
6 *8:19 *11:13 5.50106e-05
7 *7:15 *8:19 0.000279067
*RES
1 FrameStrobe[15] *8:19 47.7107 
2 *8:19 *980:A 38 
*END

*D_NET *9 0.00218017
*CONN
*P FrameStrobe[16] I
*I *985:A I *D sky130_fd_sc_hd__clkbuf_1
*CAP
1 FrameStrobe[16] 0.000499602
2 *985:A 0
3 *9:13 0.000499602
4 *9:13 *10:9 0.000216234
5 *9:13 *11:13 7.42621e-05
6 *9:13 *12:17 0.000181059
7 *9:13 *285:10 0
8 *7:15 *9:13 0
9 *8:19 *9:13 0.000709409
*RES
1 FrameStrobe[16] *9:13 47.2757 
2 *9:13 *985:A 38 
*END

*D_NET *10 0.0019475
*CONN
*P FrameStrobe[17] I
*I *986:A I *D sky130_fd_sc_hd__clkbuf_1
*CAP
1 FrameStrobe[17] 0.000598615
2 *986:A 0
3 *10:9 0.000598615
4 *10:9 *11:13 0.000201763
5 *10:9 *12:17 0
6 *10:9 *275:10 0
7 *10:9 *277:12 0
8 *10:9 *285:10 4.06849e-05
9 *7:15 *10:9 0.000291593
10 *8:19 *10:9 0
11 *9:13 *10:9 0.000216234
*RES
1 FrameStrobe[17] *10:9 31.965 
2 *10:9 *986:A 23 
*END

*D_NET *11 0.00184139
*CONN
*P FrameStrobe[18] I
*I *915:A I *D sky130_fd_sc_hd__clkbuf_1
*CAP
1 FrameStrobe[18] 0.00075307
2 *915:A 0
3 *11:13 0.00075307
4 *11:13 *12:17 0
5 *11:13 *285:10 4.21594e-06
6 *8:19 *11:13 5.50106e-05
7 *9:13 *11:13 7.42621e-05
8 *10:9 *11:13 0.000201763
*RES
1 FrameStrobe[18] *11:13 47.7521 
2 *11:13 *915:A 38 
*END

*D_NET *12 0.00193269
*CONN
*P FrameStrobe[19] I
*I *916:A I *D sky130_fd_sc_hd__clkbuf_1
*CAP
1 FrameStrobe[19] 0.000809162
2 *916:A 0
3 *12:17 0.000809162
4 *12:17 *151:10 0.00013085
5 *12:17 *277:8 2.45549e-06
6 *9:13 *12:17 0.000181059
7 *10:9 *12:17 0
8 *11:13 *12:17 0
*RES
1 FrameStrobe[19] *12:17 33.5393 
2 *12:17 *916:A 23 
*END

*D_NET *13 0.00431931
*CONN
*P FrameStrobe[1] I
*I *917:A I *D sky130_fd_sc_hd__clkbuf_1
*CAP
1 FrameStrobe[1] 0.000794272
2 *917:A 0
3 *13:17 0.00016582
4 *13:9 0.000960092
5 *13:9 *1022:A 8.78709e-05
6 *13:9 *14:13 0.000629128
7 *13:9 *17:11 0.000221997
8 *13:9 *219:16 0
9 *13:9 *241:18 0.00021673
10 *13:9 *281:10 6.08617e-05
11 *13:9 *283:8 0.000311549
12 *13:17 *18:15 0.000177268
13 *13:17 *19:9 5.05552e-05
14 *13:17 *150:12 5.31444e-05
15 *13:17 *173:8 5.67058e-05
16 *13:17 *195:8 1.17152e-05
17 *13:17 *204:8 4.6318e-06
18 *13:17 *207:10 2.64616e-05
19 *2:13 *13:9 0.000490502
*RES
1 FrameStrobe[1] *13:9 37.9307 
2 *13:9 *13:17 34.1843 
3 *13:17 *917:A 23 
*END

*D_NET *14 0.00290762
*CONN
*P FrameStrobe[2] I
*I *918:A I *D sky130_fd_sc_hd__clkbuf_1
*CAP
1 FrameStrobe[2] 0.000749232
2 *918:A 0
3 *14:13 0.000749232
4 *14:13 *909:A 2.9938e-05
5 *14:13 *911:A 9.58714e-05
6 *14:13 *1022:A 0.000200963
7 *14:13 *15:17 0.000114156
8 *14:13 *17:11 5.3304e-05
9 *14:13 *241:18 8.21866e-05
10 *14:13 *281:10 0.00014196
11 *14:13 *283:12 6.16531e-05
12 *13:9 *14:13 0.000629128
*RES
1 FrameStrobe[2] *14:13 35.59 
2 *14:13 *918:A 23 
*END

*D_NET *15 0.00282636
*CONN
*P FrameStrobe[3] I
*I *919:A I *D sky130_fd_sc_hd__clkbuf_1
*CAP
1 FrameStrobe[3] 0.000922074
2 *919:A 0
3 *15:17 0.000922074
4 *15:17 *909:A 9.84851e-05
5 *15:17 *911:A 5.3304e-05
6 *15:17 *16:15 0.000203871
7 *15:17 *17:11 7.96765e-05
8 *15:17 *203:12 0.000132474
9 *15:17 *230:14 1.4345e-05
10 *15:17 *241:8 0.000141052
11 *15:17 *280:8 0.000138727
12 *15:17 *282:14 6.12496e-06
13 *15:17 *283:12 0
14 *2:13 *15:17 0
15 *14:13 *15:17 0.000114156
*RES
1 FrameStrobe[3] *15:17 36.5843 
2 *15:17 *919:A 23 
*END

*D_NET *16 0.00265595
*CONN
*P FrameStrobe[4] I
*I *920:A I *D sky130_fd_sc_hd__clkbuf_1
*CAP
1 FrameStrobe[4] 0.000657272
2 *920:A 0
3 *16:15 0.000657272
4 *16:15 *17:11 0.000545504
5 *16:15 *19:9 7.75329e-06
6 *16:15 *20:15 0.000380342
7 *16:15 *21:15 0.00020394
8 *16:15 *219:12 0
9 *15:17 *16:15 0.000203871
*RES
1 FrameStrobe[4] *16:15 49.3264 
2 *16:15 *920:A 38 
*END

*D_NET *17 0.00262159
*CONN
*P FrameStrobe[5] I
*I *921:A I *D sky130_fd_sc_hd__buf_1
*CAP
1 FrameStrobe[5] 0.000597577
2 *921:A 0
3 *17:11 0.000597577
4 *17:11 *18:15 0.000186405
5 *17:11 *195:8 3.47879e-05
6 *17:11 *203:12 6.6869e-05
7 *17:11 *230:14 3.91386e-05
8 *17:11 *241:8 1.76557e-05
9 *17:11 *280:8 4.23817e-05
10 *17:11 *282:10 0.000138718
11 *13:9 *17:11 0.000221997
12 *14:13 *17:11 5.3304e-05
13 *15:17 *17:11 7.96765e-05
14 *16:15 *17:11 0.000545504
*RES
1 FrameStrobe[5] *17:11 33.0629 
2 *17:11 *921:A 23 
*END

*D_NET *18 0.00220339
*CONN
*P FrameStrobe[6] I
*I *922:A I *D sky130_fd_sc_hd__buf_1
*CAP
1 FrameStrobe[6] 0.000726798
2 *922:A 0
3 *18:15 0.000726798
4 *18:15 *19:9 0
5 *18:15 *20:15 5.36743e-05
6 *18:15 *173:8 2.18506e-05
7 *18:15 *195:8 1.58805e-05
8 *18:15 *203:12 0.000223698
9 *18:15 *207:10 7.10198e-05
10 *13:17 *18:15 0.000177268
11 *17:11 *18:15 0.000186405
*RES
1 FrameStrobe[6] *18:15 32.7936 
2 *18:15 *922:A 23 
*END

*D_NET *19 0.00202939
*CONN
*P FrameStrobe[7] I
*I *923:A I *D sky130_fd_sc_hd__buf_1
*CAP
1 FrameStrobe[7] 0.000628491
2 *923:A 0
3 *19:9 0.000628491
4 *19:9 *20:15 0.000479407
5 *19:9 *204:8 6.38845e-05
6 *19:9 *205:12 0
7 *19:9 *206:10 3.20914e-05
8 *19:9 *207:10 0.000138718
9 *19:9 *276:22 0
10 *13:17 *19:9 5.05552e-05
11 *16:15 *19:9 7.75329e-06
12 *18:15 *19:9 0
*RES
1 FrameStrobe[7] *19:9 31.4886 
2 *19:9 *923:A 23 
*END

*D_NET *20 0.00245112
*CONN
*P FrameStrobe[8] I
*I *924:A I *D sky130_fd_sc_hd__buf_1
*CAP
1 FrameStrobe[8] 0.000412662
2 *924:A 0
3 *20:15 0.000412662
4 *20:15 *21:15 0.000419686
5 *20:15 *207:10 0.000237673
6 *3:15 *20:15 5.50106e-05
7 *16:15 *20:15 0.000380342
8 *18:15 *20:15 5.36743e-05
9 *19:9 *20:15 0.000479407
*RES
1 FrameStrobe[8] *20:15 31.6129 
2 *20:15 *924:A 23 
*END

*D_NET *21 0.00221798
*CONN
*P FrameStrobe[9] I
*I *926:A I *D sky130_fd_sc_hd__buf_1
*CAP
1 FrameStrobe[9] 0.000512894
2 *926:A 0
3 *21:15 0.000512894
4 *3:15 *21:15 0.000472691
5 *4:11 *21:15 9.5877e-05
6 *16:15 *21:15 0.00020394
7 *20:15 *21:15 0.000419686
*RES
1 FrameStrobe[9] *21:15 32.3171 
2 *21:15 *926:A 23 
*END

*D_NET *22 0.00190752
*CONN
*P FrameStrobe_O[0] O
*I *1034:X O *D sky130_fd_sc_hd__clkbuf_4
*CAP
1 FrameStrobe_O[0] 0.000611873
2 *1034:X 0.000270061
3 *22:8 0.000881934
4 *22:8 *268:24 0.000143655
*RES
1 *1034:X *22:8 41.9564 
2 *22:8 FrameStrobe_O[0] 13.4643 
*END

*D_NET *23 0.00137927
*CONN
*P FrameStrobe_O[10] O
*I *1035:X O *D sky130_fd_sc_hd__clkbuf_4
*CAP
1 FrameStrobe_O[10] 0.000477083
2 *1035:X 0.000212551
3 *23:10 0.000689634
*RES
1 *1035:X *23:10 42.4639 
2 *23:10 FrameStrobe_O[10] 12.4182 
*END

*D_NET *24 0.00169583
*CONN
*P FrameStrobe_O[11] O
*I *1036:X O *D sky130_fd_sc_hd__clkbuf_4
*CAP
1 FrameStrobe_O[11] 0.000562672
2 *1036:X 0.000217006
3 *24:8 0.000779678
4 *24:8 *1036:A 5.67058e-05
5 *24:8 *282:18 7.97636e-05
*RES
1 *1036:X *24:8 41.48 
2 *24:8 FrameStrobe_O[11] 12.2214 
*END

*D_NET *25 0.00149819
*CONN
*P FrameStrobe_O[12] O
*I *1037:X O *D sky130_fd_sc_hd__clkbuf_4
*CAP
1 FrameStrobe_O[12] 0.000309615
2 *1037:X 0.000398582
3 *25:12 0.000708197
4 *25:12 *271:14 8.1796e-05
*RES
1 *1037:X *25:12 45.9232 
2 *25:12 FrameStrobe_O[12] 7.11536 
*END

*D_NET *26 0.00138913
*CONN
*P FrameStrobe_O[13] O
*I *1038:X O *D sky130_fd_sc_hd__clkbuf_4
*CAP
1 FrameStrobe_O[13] 0.000562672
2 *1038:X 9.8092e-05
3 *26:8 0.000660764
4 *26:8 *219:22 3.53115e-05
5 *26:8 *272:12 3.22879e-05
*RES
1 *1038:X *26:8 39.5743 
2 *26:8 FrameStrobe_O[13] 12.2214 
*END

*D_NET *27 0.00129429
*CONN
*P FrameStrobe_O[14] O
*I *1039:X O *D sky130_fd_sc_hd__clkbuf_4
*CAP
1 FrameStrobe_O[14] 0.000371557
2 *1039:X 0.000275588
3 *27:10 0.000647145
*RES
1 *1039:X *27:10 43.4168 
2 *27:10 FrameStrobe_O[14] 8.52393 
*END

*D_NET *28 0.00145337
*CONN
*P FrameStrobe_O[15] O
*I *1040:X O *D sky130_fd_sc_hd__clkbuf_4
*CAP
1 FrameStrobe_O[15] 0.000562672
2 *1040:X 9.21863e-05
3 *28:8 0.000654858
4 *28:8 *273:8 0.000143655
*RES
1 *1040:X *28:8 39.5743 
2 *28:8 FrameStrobe_O[15] 12.2214 
*END

*D_NET *29 0.00150189
*CONN
*P FrameStrobe_O[16] O
*I *1041:X O *D sky130_fd_sc_hd__clkbuf_4
*CAP
1 FrameStrobe_O[16] 0.000555536
2 *1041:X 0.000123582
3 *29:10 0.000679118
4 *29:10 *273:8 0.000143655
*RES
1 *1041:X *29:10 40.1957 
2 *29:10 FrameStrobe_O[16] 12.2214 
*END

*D_NET *30 0.0017803
*CONN
*P FrameStrobe_O[17] O
*I *1042:X O *D sky130_fd_sc_hd__clkbuf_4
*CAP
1 FrameStrobe_O[17] 0.000555536
2 *1042:X 0.000334612
3 *30:10 0.000890148
*RES
1 *1042:X *30:10 42.5779 
2 *30:10 FrameStrobe_O[17] 12.2214 
*END

*D_NET *31 0.00141167
*CONN
*P FrameStrobe_O[18] O
*I *1043:X O *D sky130_fd_sc_hd__clkbuf_4
*CAP
1 FrameStrobe_O[18] 0.000567576
2 *1043:X 0.000138258
3 *31:12 0.000705833
*RES
1 *1043:X *31:12 40.3925 
2 *31:12 FrameStrobe_O[18] 12.7496 
*END

*D_NET *32 0.00142355
*CONN
*P FrameStrobe_O[19] O
*I *1044:X O *D sky130_fd_sc_hd__clkbuf_4
*CAP
1 FrameStrobe_O[19] 0.000370205
2 *1044:X 0.000341568
3 *32:12 0.000711774
*RES
1 *1044:X *32:12 44.0382 