*SPEF "ieee 1481-1999"
*DESIGN "N_term_single2"
*DATE "11:11:11 Fri 11 11, 1111"
*VENDOR "OpenRCX"
*PROGRAM "Parallel Extraction"
*VERSION "1.0"
*DESIGN_FLOW "NAME_SCOPE LOCAL" "PIN_CAP NONE"
*DIVIDER /
*DELIMITER :
*BUS_DELIMITER []
*T_UNIT 1 NS
*C_UNIT 1 PF
*R_UNIT 1 OHM
*L_UNIT 1 HENRY

*NAME_MAP
*1 FrameStrobe[0]
*2 FrameStrobe[10]
*3 FrameStrobe[11]
*4 FrameStrobe[12]
*5 FrameStrobe[13]
*6 FrameStrobe[14]
*7 FrameStrobe[15]
*8 FrameStrobe[16]
*9 FrameStrobe[17]
*10 FrameStrobe[18]
*11 FrameStrobe[19]
*12 FrameStrobe[1]
*13 FrameStrobe[2]
*14 FrameStrobe[3]
*15 FrameStrobe[4]
*16 FrameStrobe[5]
*17 FrameStrobe[6]
*18 FrameStrobe[7]
*19 FrameStrobe[8]
*20 FrameStrobe[9]
*21 FrameStrobe_O[0]
*22 FrameStrobe_O[10]
*23 FrameStrobe_O[11]
*24 FrameStrobe_O[12]
*25 FrameStrobe_O[13]
*26 FrameStrobe_O[14]
*27 FrameStrobe_O[15]
*28 FrameStrobe_O[16]
*29 FrameStrobe_O[17]
*30 FrameStrobe_O[18]
*31 FrameStrobe_O[19]
*32 FrameStrobe_O[1]
*33 FrameStrobe_O[2]
*34 FrameStrobe_O[3]
*35 FrameStrobe_O[4]
*36 FrameStrobe_O[5]
*37 FrameStrobe_O[6]
*38 FrameStrobe_O[7]
*39 FrameStrobe_O[8]
*40 FrameStrobe_O[9]
*41 N1END[0]
*42 N1END[1]
*43 N1END[2]
*44 N1END[3]
*45 N2END[0]
*46 N2END[1]
*47 N2END[2]
*48 N2END[3]
*49 N2END[4]
*50 N2END[5]
*51 N2END[6]
*52 N2END[7]
*53 N2MID[0]
*54 N2MID[1]
*55 N2MID[2]
*56 N2MID[3]
*57 N2MID[4]
*58 N2MID[5]
*59 N2MID[6]
*60 N2MID[7]
*61 N4END[0]
*62 N4END[10]
*63 N4END[11]
*64 N4END[12]
*65 N4END[13]
*66 N4END[14]
*67 N4END[15]
*68 N4END[1]
*69 N4END[2]
*70 N4END[3]
*71 N4END[4]
*72 N4END[5]
*73 N4END[6]
*74 N4END[7]
*75 N4END[8]
*76 N4END[9]
*77 NN4END[0]
*78 NN4END[10]
*79 NN4END[11]
*80 NN4END[12]
*81 NN4END[13]
*82 NN4END[14]
*83 NN4END[15]
*84 NN4END[1]
*85 NN4END[2]
*86 NN4END[3]
*87 NN4END[4]
*88 NN4END[5]
*89 NN4END[6]
*90 NN4END[7]
*91 NN4END[8]
*92 NN4END[9]
*93 S1BEG[0]
*94 S1BEG[1]
*95 S1BEG[2]
*96 S1BEG[3]
*97 S2BEG[0]
*98 S2BEG[1]
*99 S2BEG[2]
*100 S2BEG[3]
*101 S2BEG[4]
*102 S2BEG[5]
*103 S2BEG[6]
*104 S2BEG[7]
*105 S2BEGb[0]
*106 S2BEGb[1]
*107 S2BEGb[2]
*108 S2BEGb[3]
*109 S2BEGb[4]
*110 S2BEGb[5]
*111 S2BEGb[6]
*112 S2BEGb[7]
*113 S4BEG[0]
*114 S4BEG[10]
*115 S4BEG[11]
*116 S4BEG[12]
*117 S4BEG[13]
*118 S4BEG[14]
*119 S4BEG[15]
*120 S4BEG[1]
*121 S4BEG[2]
*122 S4BEG[3]
*123 S4BEG[4]
*124 S4BEG[5]
*125 S4BEG[6]
*126 S4BEG[7]
*127 S4BEG[8]
*128 S4BEG[9]
*129 SS4BEG[0]
*130 SS4BEG[10]
*131 SS4BEG[11]
*132 SS4BEG[12]
*133 SS4BEG[13]
*134 SS4BEG[14]
*135 SS4BEG[15]
*136 SS4BEG[1]
*137 SS4BEG[2]
*138 SS4BEG[3]
*139 SS4BEG[4]
*140 SS4BEG[5]
*141 SS4BEG[6]
*142 SS4BEG[7]
*143 SS4BEG[8]
*144 SS4BEG[9]
*145 UserCLK
*146 UserCLKo
*149 FrameStrobe_O_i\[0\]
*150 FrameStrobe_O_i\[10\]
*151 FrameStrobe_O_i\[11\]
*152 FrameStrobe_O_i\[12\]
*153 FrameStrobe_O_i\[13\]
*154 FrameStrobe_O_i\[14\]
*155 FrameStrobe_O_i\[15\]
*156 FrameStrobe_O_i\[16\]
*157 FrameStrobe_O_i\[17\]
*158 FrameStrobe_O_i\[18\]
*159 FrameStrobe_O_i\[19\]
*160 FrameStrobe_O_i\[1\]
*161 FrameStrobe_O_i\[2\]
*162 FrameStrobe_O_i\[3\]
*163 FrameStrobe_O_i\[4\]
*164 FrameStrobe_O_i\[5\]
*165 FrameStrobe_O_i\[6\]
*166 FrameStrobe_O_i\[7\]
*167 FrameStrobe_O_i\[8\]
*168 FrameStrobe_O_i\[9\]
*169 net1
*170 net10
*171 net100
*172 net101
*173 net102
*174 net103
*175 net104
*176 net105
*177 net106
*178 net107
*179 net108
*180 net109
*181 net11
*182 net110
*183 net111
*184 net112
*185 net113
*186 net114
*187 net115
*188 net116
*189 net117
*190 net118
*191 net119
*192 net12
*193 net120
*194 net121
*195 net122
*196 net123
*197 net124
*198 net125
*199 net126
*200 net127
*201 net128
*202 net129
*203 net13
*204 net130
*205 net131
*206 net132
*207 net133
*208 net134
*209 net135
*210 net136
*211 net137
*212 net138
*213 net139
*214 net14
*215 net140
*216 net141
*217 net142
*218 net143
*219 net144
*220 net145
*221 net146
*222 net15
*223 net16
*224 net17
*225 net18
*226 net19
*227 net2
*228 net20
*229 net21
*230 net22
*231 net23
*232 net24
*233 net25
*234 net26
*235 net27
*236 net28
*237 net29
*238 net3
*239 net30
*240 net31
*241 net32
*242 net33
*243 net34
*244 net35
*245 net36
*246 net37
*247 net38
*248 net39
*249 net4
*250 net40
*251 net41
*252 net42
*253 net43
*254 net44
*255 net45
*256 net46
*257 net47
*258 net48
*259 net49
*260 net5
*261 net50
*262 net51
*263 net52
*264 net53
*265 net54
*266 net55
*267 net56
*268 net57
*269 net58
*270 net59
*271 net6
*272 net60
*273 net61
*274 net62
*275 net63
*276 net64
*277 net65
*278 net66
*279 net67
*280 net68
*281 net69
*282 net7
*283 net70
*284 net71
*285 net72
*286 net73
*287 net74
*288 net75
*289 net76
*290 net77
*291 net78
*292 net79
*293 net8
*294 net80
*295 net81
*296 net82
*297 net83
*298 net84
*299 net85
*300 net86
*301 net87
*302 net88
*303 net89
*304 net9
*305 net90
*306 net91
*307 net92
*308 net93
*309 net94
*310 net95
*311 net96
*312 net97
*313 net98
*314 net99
*315 FILLER_0_0_101
*316 FILLER_0_0_105
*317 FILLER_0_0_113
*318 FILLER_0_0_117
*319 FILLER_0_0_121
*320 FILLER_0_0_169
*321 FILLER_0_0_182
*322 FILLER_0_0_218
*323 FILLER_0_0_234
*324 FILLER_0_0_24
*325 FILLER_0_0_246
*326 FILLER_0_0_253
*327 FILLER_0_0_272
*328 FILLER_0_0_29
*329 FILLER_0_0_299
*330 FILLER_0_0_307
*331 FILLER_0_0_315
*332 FILLER_0_0_33
*333 FILLER_0_0_335
*334 FILLER_0_0_347
*335 FILLER_0_0_361
*336 FILLER_0_0_37
*337 FILLER_0_0_389
*338 FILLER_0_0_41
*339 FILLER_0_0_430
*340 FILLER_0_0_45
*341 FILLER_0_0_49
*342 FILLER_0_0_57
*343 FILLER_0_0_61
*344 FILLER_0_0_65
*345 FILLER_0_0_69
*346 FILLER_0_0_73
*347 FILLER_0_0_77
*348 FILLER_0_0_85
*349 FILLER_0_0_89
*350 FILLER_0_0_9
*351 FILLER_0_0_93
*352 FILLER_0_0_97
*353 FILLER_0_10_109
*354 FILLER_0_10_121
*355 FILLER_0_10_133
*356 FILLER_0_10_139
*357 FILLER_0_10_141
*358 FILLER_0_10_15
*359 FILLER_0_10_153
*360 FILLER_0_10_165
*361 FILLER_0_10_177
*362 FILLER_0_10_189
*363 FILLER_0_10_195
*364 FILLER_0_10_197
*365 FILLER_0_10_209
*366 FILLER_0_10_221
*367 FILLER_0_10_233
*368 FILLER_0_10_245
*369 FILLER_0_10_251
*370 FILLER_0_10_253
*371 FILLER_0_10_265
*372 FILLER_0_10_27
*373 FILLER_0_10_277
*374 FILLER_0_10_289
*375 FILLER_0_10_29
*376 FILLER_0_10_3
*377 FILLER_0_10_301
*378 FILLER_0_10_307
*379 FILLER_0_10_309
*380 FILLER_0_10_321
*381 FILLER_0_10_333
*382 FILLER_0_10_345
*383 FILLER_0_10_357
*384 FILLER_0_10_363
*385 FILLER_0_10_365
*386 FILLER_0_10_377
*387 FILLER_0_10_389
*388 FILLER_0_10_401
*389 FILLER_0_10_41
*390 FILLER_0_10_413
*391 FILLER_0_10_419
*392 FILLER_0_10_421
*393 FILLER_0_10_433
*394 FILLER_0_10_445
*395 FILLER_0_10_457
*396 FILLER_0_10_469
*397 FILLER_0_10_475
*398 FILLER_0_10_477
*399 FILLER_0_10_53
*400 FILLER_0_10_65
*401 FILLER_0_10_77
*402 FILLER_0_10_83
*403 FILLER_0_10_85
*404 FILLER_0_10_97
*405 FILLER_0_11_105
*406 FILLER_0_11_111
*407 FILLER_0_11_113
*408 FILLER_0_11_125
*409 FILLER_0_11_137
*410 FILLER_0_11_149
*411 FILLER_0_11_15
*412 FILLER_0_11_161
*413 FILLER_0_11_167
*414 FILLER_0_11_169
*415 FILLER_0_11_181
*416 FILLER_0_11_193
*417 FILLER_0_11_205
*418 FILLER_0_11_217
*419 FILLER_0_11_223
*420 FILLER_0_11_225
*421 FILLER_0_11_237
*422 FILLER_0_11_249
*423 FILLER_0_11_261
*424 FILLER_0_11_27
*425 FILLER_0_11_273
*426 FILLER_0_11_279
*427 FILLER_0_11_281
*428 FILLER_0_11_293
*429 FILLER_0_11_3
*430 FILLER_0_11_305
*431 FILLER_0_11_317
*432 FILLER_0_11_329
*433 FILLER_0_11_335
*434 FILLER_0_11_337
*435 FILLER_0_11_349
*436 FILLER_0_11_361
*437 FILLER_0_11_373
*438 FILLER_0_11_385
*439 FILLER_0_11_39
*440 FILLER_0_11_391
*441 FILLER_0_11_393
*442 FILLER_0_11_405
*443 FILLER_0_11_417
*444 FILLER_0_11_429
*445 FILLER_0_11_441
*446 FILLER_0_11_447
*447 FILLER_0_11_449
*448 FILLER_0_11_461
*449 FILLER_0_11_473
*450 FILLER_0_11_479
*451 FILLER_0_11_51
*452 FILLER_0_11_55
*453 FILLER_0_11_57
*454 FILLER_0_11_69
*455 FILLER_0_11_81
*456 FILLER_0_11_93
*457 FILLER_0_12_109
*458 FILLER_0_12_121
*459 FILLER_0_12_133
*460 FILLER_0_12_139
*461 FILLER_0_12_141
*462 FILLER_0_12_15
*463 FILLER_0_12_153
*464 FILLER_0_12_165
*465 FILLER_0_12_177
*466 FILLER_0_12_189
*467 FILLER_0_12_195
*468 FILLER_0_12_197
*469 FILLER_0_12_209
*470 FILLER_0_12_221
*471 FILLER_0_12_233
*472 FILLER_0_12_245
*473 FILLER_0_12_251
*474 FILLER_0_12_253
*475 FILLER_0_12_265
*476 FILLER_0_12_27
*477 FILLER_0_12_277
*478 FILLER_0_12_289
*479 FILLER_0_12_29
*480 FILLER_0_12_3
*481 FILLER_0_12_301
*482 FILLER_0_12_307
*483 FILLER_0_12_309
*484 FILLER_0_12_321
*485 FILLER_0_12_333
*486 FILLER_0_12_345
*487 FILLER_0_12_357
*488 FILLER_0_12_363
*489 FILLER_0_12_365
*490 FILLER_0_12_377
*491 FILLER_0_12_389
*492 FILLER_0_12_401
*493 FILLER_0_12_41
*494 FILLER_0_12_413
*495 FILLER_0_12_419
*496 FILLER_0_12_421
*497 FILLER_0_12_433
*498 FILLER_0_12_445
*499 FILLER_0_12_457
*500 FILLER_0_12_469
*501 FILLER_0_12_475
*502 FILLER_0_12_477
*503 FILLER_0_12_53
*504 FILLER_0_12_65
*505 FILLER_0_12_77
*506 FILLER_0_12_83
*507 FILLER_0_12_85
*508 FILLER_0_12_97
*509 FILLER_0_13_102
*510 FILLER_0_13_110
*511 FILLER_0_13_113
*512 FILLER_0_13_119
*513 FILLER_0_13_126
*514 FILLER_0_13_138
*515 FILLER_0_13_141
*516 FILLER_0_13_145
*517 FILLER_0_13_150
*518 FILLER_0_13_162
*519 FILLER_0_13_175
*520 FILLER_0_13_187
*521 FILLER_0_13_195
*522 FILLER_0_13_203
*523 FILLER_0_13_21
*524 FILLER_0_13_215
*525 FILLER_0_13_222
*526 FILLER_0_13_225
*527 FILLER_0_13_237
*528 FILLER_0_13_246
*529 FILLER_0_13_253
*530 FILLER_0_13_265
*531 FILLER_0_13_27
*532 FILLER_0_13_270
*533 FILLER_0_13_278
*534 FILLER_0_13_281
*535 FILLER_0_13_287
*536 FILLER_0_13_294
*537 FILLER_0_13_306
*538 FILLER_0_13_309
*539 FILLER_0_13_313
*540 FILLER_0_13_318
*541 FILLER_0_13_33
*542 FILLER_0_13_330
*543 FILLER_0_13_337
*544 FILLER_0_13_342
*545 FILLER_0_13_354
*546 FILLER_0_13_362
*547 FILLER_0_13_371
*548 FILLER_0_13_383
*549 FILLER_0_13_390
*550 FILLER_0_13_393
*551 FILLER_0_13_405
*552 FILLER_0_13_414
*553 FILLER_0_13_421
*554 FILLER_0_13_433
*555 FILLER_0_13_438
*556 FILLER_0_13_446
*557 FILLER_0_13_449
*558 FILLER_0_13_45
*559 FILLER_0_13_457
*560 FILLER_0_13_462
*561 FILLER_0_13_470
*562 FILLER_0_13_477
*563 FILLER_0_13_54
*564 FILLER_0_13_57
*565 FILLER_0_13_69
*566 FILLER_0_13_73
*567 FILLER_0_13_78
*568 FILLER_0_13_85
*569 FILLER_0_13_9
*570 FILLER_0_13_97
*571 FILLER_0_1_105
*572 FILLER_0_1_111
*573 FILLER_0_1_113
*574 FILLER_0_1_125
*575 FILLER_0_1_137
*576 FILLER_0_1_149
*577 FILLER_0_1_158
*578 FILLER_0_1_169
*579 FILLER_0_1_20
*580 FILLER_0_1_220
*581 FILLER_0_1_225
*582 FILLER_0_1_236
*583 FILLER_0_1_248
*584 FILLER_0_1_25
*585 FILLER_0_1_255
*586 FILLER_0_1_268
*587 FILLER_0_1_296
*588 FILLER_0_1_340
*589 FILLER_0_1_344
*590 FILLER_0_1_352
*591 FILLER_0_1_364
*592 FILLER_0_1_37
*593 FILLER_0_1_377
*594 FILLER_0_1_381
*595 FILLER_0_1_388
*596 FILLER_0_1_393
*597 FILLER_0_1_397
*598 FILLER_0_1_409
*599 FILLER_0_1_417
*600 FILLER_0_1_422
*601 FILLER_0_1_433
*602 FILLER_0_1_441
*603 FILLER_0_1_445
*604 FILLER_0_1_449
*605 FILLER_0_1_461
*606 FILLER_0_1_469
*607 FILLER_0_1_476
*608 FILLER_0_1_49
*609 FILLER_0_1_55
*610 FILLER_0_1_57
*611 FILLER_0_1_69
*612 FILLER_0_1_81
*613 FILLER_0_1_9
*614 FILLER_0_1_93
*615 FILLER_0_2_109
*616 FILLER_0_2_121
*617 FILLER_0_2_133
*618 FILLER_0_2_139
*619 FILLER_0_2_141
*620 FILLER_0_2_15
*621 FILLER_0_2_153
*622 FILLER_0_2_165
*623 FILLER_0_2_176
*624 FILLER_0_2_188
*625 FILLER_0_2_195
*626 FILLER_0_2_197
*627 FILLER_0_2_207
*628 FILLER_0_2_215
*629 FILLER_0_2_220
*630 FILLER_0_2_240
*631 FILLER_0_2_251
*632 FILLER_0_2_256
*633 FILLER_0_2_268
*634 FILLER_0_2_27
*635 FILLER_0_2_273
*636 FILLER_0_2_285
*637 FILLER_0_2_289
*638 FILLER_0_2_29
*639 FILLER_0_2_293
*640 FILLER_0_2_297
*641 FILLER_0_2_3
*642 FILLER_0_2_309
*643 FILLER_0_2_317
*644 FILLER_0_2_330
*645 FILLER_0_2_345
*646 FILLER_0_2_357
*647 FILLER_0_2_363
*648 FILLER_0_2_365
*649 FILLER_0_2_369
*650 FILLER_0_2_381
*651 FILLER_0_2_389
*652 FILLER_0_2_393
*653 FILLER_0_2_405
*654 FILLER_0_2_41
*655 FILLER_0_2_416
*656 FILLER_0_2_421
*657 FILLER_0_2_433
*658 FILLER_0_2_440
*659 FILLER_0_2_452
*660 FILLER_0_2_467
*661 FILLER_0_2_53
*662 FILLER_0_2_65
*663 FILLER_0_2_77
*664 FILLER_0_2_83
*665 FILLER_0_2_85
*666 FILLER_0_2_97
*667 FILLER_0_3_105
*668 FILLER_0_3_111
*669 FILLER_0_3_113
*670 FILLER_0_3_125
*671 FILLER_0_3_137
*672 FILLER_0_3_149
*673 FILLER_0_3_15
*674 FILLER_0_3_161
*675 FILLER_0_3_167
*676 FILLER_0_3_169
*677 FILLER_0_3_181
*678 FILLER_0_3_193
*679 FILLER_0_3_205
*680 FILLER_0_3_217
*681 FILLER_0_3_223
*682 FILLER_0_3_228
*683 FILLER_0_3_234
*684 FILLER_0_3_238
*685 FILLER_0_3_243
*686 FILLER_0_3_255
*687 FILLER_0_3_267
*688 FILLER_0_3_27
*689 FILLER_0_3_279
*690 FILLER_0_3_281
*691 FILLER_0_3_293
*692 FILLER_0_3_3
*693 FILLER_0_3_305
*694 FILLER_0_3_317
*695 FILLER_0_3_329
*696 FILLER_0_3_335
*697 FILLER_0_3_337
*698 FILLER_0_3_349
*699 FILLER_0_3_361
*700 FILLER_0_3_373
*701 FILLER_0_3_385
*702 FILLER_0_3_39
*703 FILLER_0_3_391
*704 FILLER_0_3_393
*705 FILLER_0_3_405
*706 FILLER_0_3_417
*707 FILLER_0_3_429
*708 FILLER_0_3_441
*709 FILLER_0_3_447
*710 FILLER_0_3_449
*711 FILLER_0_3_461
*712 FILLER_0_3_473
*713 FILLER_0_3_479
*714 FILLER_0_3_51
*715 FILLER_0_3_55
*716 FILLER_0_3_57
*717 FILLER_0_3_69
*718 FILLER_0_3_81
*719 FILLER_0_3_93
*720 FILLER_0_4_109
*721 FILLER_0_4_121
*722 FILLER_0_4_133
*723 FILLER_0_4_139
*724 FILLER_0_4_141
*725 FILLER_0_4_15
*726 FILLER_0_4_153
*727 FILLER_0_4_165
*728 FILLER_0_4_177
*729 FILLER_0_4_189
*730 FILLER_0_4_195
*731 FILLER_0_4_197
*732 FILLER_0_4_209
*733 FILLER_0_4_221
*734 FILLER_0_4_233
*735 FILLER_0_4_245
*736 FILLER_0_4_251
*737 FILLER_0_4_253
*738 FILLER_0_4_265
*739 FILLER_0_4_27
*740 FILLER_0_4_277
*741 FILLER_0_4_289
*742 FILLER_0_4_29
*743 FILLER_0_4_3
*744 FILLER_0_4_301
*745 FILLER_0_4_307
*746 FILLER_0_4_309
*747 FILLER_0_4_321
*748 FILLER_0_4_333
*749 FILLER_0_4_345
*750 FILLER_0_4_357
*751 FILLER_0_4_363
*752 FILLER_0_4_365
*753 FILLER_0_4_377
*754 FILLER_0_4_389
*755 FILLER_0_4_401
*756 FILLER_0_4_41
*757 FILLER_0_4_413
*758 FILLER_0_4_419
*759 FILLER_0_4_421
*760 FILLER_0_4_433
*761 FILLER_0_4_445
*762 FILLER_0_4_457
*763 FILLER_0_4_469
*764 FILLER_0_4_475
*765 FILLER_0_4_477
*766 FILLER_0_4_53
*767 FILLER_0_4_65
*768 FILLER_0_4_77
*769 FILLER_0_4_83
*770 FILLER_0_4_85
*771 FILLER_0_4_97
*772 FILLER_0_5_105
*773 FILLER_0_5_111
*774 FILLER_0_5_113
*775 FILLER_0_5_125
*776 FILLER_0_5_137
*777 FILLER_0_5_149
*778 FILLER_0_5_15
*779 FILLER_0_5_161
*780 FILLER_0_5_167
*781 FILLER_0_5_169
*782 FILLER_0_5_181
*783 FILLER_0_5_193
*784 FILLER_0_5_205
*785 FILLER_0_5_217
*786 FILLER_0_5_223
*787 FILLER_0_5_225
*788 FILLER_0_5_237
*789 FILLER_0_5_249
*790 FILLER_0_5_261
*791 FILLER_0_5_27
*792 FILLER_0_5_273
*793 FILLER_0_5_279
*794 FILLER_0_5_281
*795 FILLER_0_5_293
*796 FILLER_0_5_3
*797 FILLER_0_5_305
*798 FILLER_0_5_317
*799 FILLER_0_5_329
*800 FILLER_0_5_335
*801 FILLER_0_5_337
*802 FILLER_0_5_349
*803 FILLER_0_5_361
*804 FILLER_0_5_373
*805 FILLER_0_5_385
*806 FILLER_0_5_39
*807 FILLER_0_5_391
*808 FILLER_0_5_393
*809 FILLER_0_5_405
*810 FILLER_0_5_417
*811 FILLER_0_5_429
*812 FILLER_0_5_441
*813 FILLER_0_5_447
*814 FILLER_0_5_449
*815 FILLER_0_5_461
*816 FILLER_0_5_473
*817 FILLER_0_5_479
*818 FILLER_0_5_51
*819 FILLER_0_5_55
*820 FILLER_0_5_57
*821 FILLER_0_5_69
*822 FILLER_0_5_81
*823 FILLER_0_5_93
*824 FILLER_0_6_109
*825 FILLER_0_6_121
*826 FILLER_0_6_133
*827 FILLER_0_6_139
*828 FILLER_0_6_141
*829 FILLER_0_6_15
*830 FILLER_0_6_153
*831 FILLER_0_6_165
*832 FILLER_0_6_177
*833 FILLER_0_6_189
*834 FILLER_0_6_195
*835 FILLER_0_6_197
*836 FILLER_0_6_209
*837 FILLER_0_6_221
*838 FILLER_0_6_233
*839 FILLER_0_6_245
*840 FILLER_0_6_251
*841 FILLER_0_6_253
*842 FILLER_0_6_265
*843 FILLER_0_6_27
*844 FILLER_0_6_277
*845 FILLER_0_6_289
*846 FILLER_0_6_29
*847 FILLER_0_6_3
*848 FILLER_0_6_301
*849 FILLER_0_6_307
*850 FILLER_0_6_309
*851 FILLER_0_6_321
*852 FILLER_0_6_333
*853 FILLER_0_6_345
*854 FILLER_0_6_357
*855 FILLER_0_6_363
*856 FILLER_0_6_365
*857 FILLER_0_6_377
*858 FILLER_0_6_389
*859 FILLER_0_6_401
*860 FILLER_0_6_41
*861 FILLER_0_6_413
*862 FILLER_0_6_419
*863 FILLER_0_6_421
*864 FILLER_0_6_433
*865 FILLER_0_6_445
*866 FILLER_0_6_457
*867 FILLER_0_6_469
*868 FILLER_0_6_475
*869 FILLER_0_6_477
*870 FILLER_0_6_53
*871 FILLER_0_6_65
*872 FILLER_0_6_77
*873 FILLER_0_6_83
*874 FILLER_0_6_85
*875 FILLER_0_6_97
*876 FILLER_0_7_105
*877 FILLER_0_7_111
*878 FILLER_0_7_113
*879 FILLER_0_7_125
*880 FILLER_0_7_137
*881 FILLER_0_7_149
*882 FILLER_0_7_15
*883 FILLER_0_7_161
*884 FILLER_0_7_167
*885 FILLER_0_7_169
*886 FILLER_0_7_181
*887 FILLER_0_7_193
*888 FILLER_0_7_205
*889 FILLER_0_7_217
*890 FILLER_0_7_223
*891 FILLER_0_7_225
*892 FILLER_0_7_237
*893 FILLER_0_7_249
*894 FILLER_0_7_261
*895 FILLER_0_7_27
*896 FILLER_0_7_273
*897 FILLER_0_7_279
*898 FILLER_0_7_281
*899 FILLER_0_7_293
*900 FILLER_0_7_3
*901 FILLER_0_7_305
*902 FILLER_0_7_317
*903 FILLER_0_7_329
*904 FILLER_0_7_335
*905 FILLER_0_7_337
*906 FILLER_0_7_349
*907 FILLER_0_7_361
*908 FILLER_0_7_373
*909 FILLER_0_7_385
*910 FILLER_0_7_39
*911 FILLER_0_7_391
*912 FILLER_0_7_393
*913 FILLER_0_7_405
*914 FILLER_0_7_417
*915 FILLER_0_7_429
*916 FILLER_0_7_441
*917 FILLER_0_7_447
*918 FILLER_0_7_449
*919 FILLER_0_7_461
*920 FILLER_0_7_473
*921 FILLER_0_7_479
*922 FILLER_0_7_51
*923 FILLER_0_7_55
*924 FILLER_0_7_57
*925 FILLER_0_7_69
*926 FILLER_0_7_81
*927 FILLER_0_7_93
*928 FILLER_0_8_109
*929 FILLER_0_8_121
*930 FILLER_0_8_133
*931 FILLER_0_8_139
*932 FILLER_0_8_141
*933 FILLER_0_8_15
*934 FILLER_0_8_153
*935 FILLER_0_8_165
*936 FILLER_0_8_177
*937 FILLER_0_8_189
*938 FILLER_0_8_195
*939 FILLER_0_8_197
*940 FILLER_0_8_209
*941 FILLER_0_8_221
*942 FILLER_0_8_233
*943 FILLER_0_8_245
*944 FILLER_0_8_251
*945 FILLER_0_8_253
*946 FILLER_0_8_265
*947 FILLER_0_8_27
*948 FILLER_0_8_277
*949 FILLER_0_8_289
*950 FILLER_0_8_29
*951 FILLER_0_8_3
*952 FILLER_0_8_301
*953 FILLER_0_8_307
*954 FILLER_0_8_309
*955 FILLER_0_8_321
*956 FILLER_0_8_333
*957 FILLER_0_8_345
*958 FILLER_0_8_357
*959 FILLER_0_8_363
*960 FILLER_0_8_365
*961 FILLER_0_8_377
*962 FILLER_0_8_389
*963 FILLER_0_8_401
*964 FILLER_0_8_41
*965 FILLER_0_8_413
*966 FILLER_0_8_419
*967 FILLER_0_8_421
*968 FILLER_0_8_433
*969 FILLER_0_8_445
*970 FILLER_0_8_457
*971 FILLER_0_8_469
*972 FILLER_0_8_475
*973 FILLER_0_8_477
*974 FILLER_0_8_53
*975 FILLER_0_8_65
*976 FILLER_0_8_77
*977 FILLER_0_8_83
*978 FILLER_0_8_85
*979 FILLER_0_8_97
*980 FILLER_0_9_105
*981 FILLER_0_9_111
*982 FILLER_0_9_113
*983 FILLER_0_9_125
*984 FILLER_0_9_137
*985 FILLER_0_9_149
*986 FILLER_0_9_15
*987 FILLER_0_9_161
*988 FILLER_0_9_167
*989 FILLER_0_9_169
*990 FILLER_0_9_181
*991 FILLER_0_9_193
*992 FILLER_0_9_205
*993 FILLER_0_9_217
*994 FILLER_0_9_223
*995 FILLER_0_9_225
*996 FILLER_0_9_237
*997 FILLER_0_9_249
*998 FILLER_0_9_261
*999 FILLER_0_9_27
*1000 FILLER_0_9_273
*1001 FILLER_0_9_279
*1002 FILLER_0_9_281
*1003 FILLER_0_9_293
*1004 FILLER_0_9_3
*1005 FILLER_0_9_305
*1006 FILLER_0_9_317
*1007 FILLER_0_9_329
*1008 FILLER_0_9_335
*1009 FILLER_0_9_337
*1010 FILLER_0_9_349
*1011 FILLER_0_9_361
*1012 FILLER_0_9_373
*1013 FILLER_0_9_385
*1014 FILLER_0_9_39
*1015 FILLER_0_9_391
*1016 FILLER_0_9_393
*1017 FILLER_0_9_405
*1018 FILLER_0_9_417
*1019 FILLER_0_9_429
*1020 FILLER_0_9_441
*1021 FILLER_0_9_447
*1022 FILLER_0_9_449
*1023 FILLER_0_9_461
*1024 FILLER_0_9_473
*1025 FILLER_0_9_479
*1026 FILLER_0_9_51
*1027 FILLER_0_9_55
*1028 FILLER_0_9_57
*1029 FILLER_0_9_69
*1030 FILLER_0_9_81
*1031 FILLER_0_9_93
*1032 Inst_N_term_single2_switch_matrix/_00_
*1033 Inst_N_term_single2_switch_matrix/_01_
*1034 Inst_N_term_single2_switch_matrix/_02_
*1035 Inst_N_term_single2_switch_matrix/_03_
*1036 Inst_N_term_single2_switch_matrix/_04_
*1037 Inst_N_term_single2_switch_matrix/_05_
*1038 Inst_N_term_single2_switch_matrix/_06_
*1039 Inst_N_term_single2_switch_matrix/_07_
*1040 Inst_N_term_single2_switch_matrix/_08_
*1041 Inst_N_term_single2_switch_matrix/_09_
*1042 Inst_N_term_single2_switch_matrix/_10_
*1043 Inst_N_term_single2_switch_matrix/_11_
*1044 Inst_N_term_single2_switch_matrix/_12_
*1045 Inst_N_term_single2_switch_matrix/_13_
*1046 Inst_N_term_single2_switch_matrix/_14_
*1047 Inst_N_term_single2_switch_matrix/_15_
*1048 Inst_N_term_single2_switch_matrix/_16_
*1049 Inst_N_term_single2_switch_matrix/_17_
*1050 Inst_N_term_single2_switch_matrix/_18_
*1051 Inst_N_term_single2_switch_matrix/_19_
*1052 Inst_N_term_single2_switch_matrix/_20_
*1053 Inst_N_term_single2_switch_matrix/_21_
*1054 Inst_N_term_single2_switch_matrix/_22_
*1055 Inst_N_term_single2_switch_matrix/_23_
*1056 Inst_N_term_single2_switch_matrix/_24_
*1057 Inst_N_term_single2_switch_matrix/_25_
*1058 Inst_N_term_single2_switch_matrix/_26_
*1059 Inst_N_term_single2_switch_matrix/_27_
*1060 Inst_N_term_single2_switch_matrix/_28_
*1061 Inst_N_term_single2_switch_matrix/_29_
*1062 Inst_N_term_single2_switch_matrix/_30_
*1063 Inst_N_term_single2_switch_matrix/_31_
*1064 Inst_N_term_single2_switch_matrix/_32_
*1065 Inst_N_term_single2_switch_matrix/_33_
*1066 Inst_N_term_single2_switch_matrix/_34_
*1067 Inst_N_term_single2_switch_matrix/_35_
*1068 Inst_N_term_single2_switch_matrix/_36_
*1069 Inst_N_term_single2_switch_matrix/_37_
*1070 Inst_N_term_single2_switch_matrix/_38_
*1071 Inst_N_term_single2_switch_matrix/_39_
*1072 Inst_N_term_single2_switch_matrix/_40_
*1073 Inst_N_term_single2_switch_matrix/_41_
*1074 Inst_N_term_single2_switch_matrix/_42_
*1075 Inst_N_term_single2_switch_matrix/_43_
*1076 Inst_N_term_single2_switch_matrix/_44_
*1077 Inst_N_term_single2_switch_matrix/_45_
*1078 Inst_N_term_single2_switch_matrix/_46_
*1079 Inst_N_term_single2_switch_matrix/_47_
*1080 Inst_N_term_single2_switch_matrix/_48_
*1081 Inst_N_term_single2_switch_matrix/_49_
*1082 Inst_N_term_single2_switch_matrix/_50_
*1083 Inst_N_term_single2_switch_matrix/_51_
*1084 PHY_0
*1085 PHY_1
*1086 PHY_10
*1087 PHY_11
*1088 PHY_12
*1089 PHY_13
*1090 PHY_14
*1091 PHY_15
*1092 PHY_16
*1093 PHY_17
*1094 PHY_18
*1095 PHY_19
*1096 PHY_2
*1097 PHY_20
*1098 PHY_21
*1099 PHY_22
*1100 PHY_23
*1101 PHY_24
*1102 PHY_25
*1103 PHY_26
*1104 PHY_27
*1105 PHY_3
*1106 PHY_4
*1107 PHY_5
*1108 PHY_6
*1109 PHY_7
*1110 PHY_8
*1111 PHY_9
*1112 TAP_100
*1113 TAP_101
*1114 TAP_102
*1115 TAP_103
*1116 TAP_104
*1117 TAP_105
*1118 TAP_106
*1119 TAP_107
*1120 TAP_108
*1121 TAP_109
*1122 TAP_110
*1123 TAP_111
*1124 TAP_112
*1125 TAP_113
*1126 TAP_114
*1127 TAP_115
*1128 TAP_116
*1129 TAP_117
*1130 TAP_118
*1131 TAP_119
*1132 TAP_120
*1133 TAP_121
*1134 TAP_122
*1135 TAP_123
*1136 TAP_124
*1137 TAP_125
*1138 TAP_126
*1139 TAP_127
*1140 TAP_128
*1141 TAP_129
*1142 TAP_130
*1143 TAP_131
*1144 TAP_132
*1145 TAP_133
*1146 TAP_134
*1147 TAP_135
*1148 TAP_136
*1149 TAP_137
*1150 TAP_138
*1151 TAP_139
*1152 TAP_140
*1153 TAP_141
*1154 TAP_142
*1155 TAP_143
*1156 TAP_144
*1157 TAP_145
*1158 TAP_146
*1159 TAP_147
*1160 TAP_148
*1161 TAP_149
*1162 TAP_150
*1163 TAP_151
*1164 TAP_152
*1165 TAP_153
*1166 TAP_154
*1167 TAP_155
*1168 TAP_156
*1169 TAP_157
*1170 TAP_158
*1171 TAP_159
*1172 TAP_160
*1173 TAP_161
*1174 TAP_162
*1175 TAP_163
*1176 TAP_28
*1177 TAP_29
*1178 TAP_30
*1179 TAP_31
*1180 TAP_32
*1181 TAP_33
*1182 TAP_34
*1183 TAP_35
*1184 TAP_36
*1185 TAP_37
*1186 TAP_38
*1187 TAP_39
*1188 TAP_40
*1189 TAP_41
*1190 TAP_42
*1191 TAP_43
*1192 TAP_44
*1193 TAP_45
*1194 TAP_46
*1195 TAP_47
*1196 TAP_48
*1197 TAP_49
*1198 TAP_50
*1199 TAP_51
*1200 TAP_52
*1201 TAP_53
*1202 TAP_54
*1203 TAP_55
*1204 TAP_56
*1205 TAP_57
*1206 TAP_58
*1207 TAP_59
*1208 TAP_60
*1209 TAP_61
*1210 TAP_62
*1211 TAP_63
*1212 TAP_64
*1213 TAP_65
*1214 TAP_66
*1215 TAP_67
*1216 TAP_68
*1217 TAP_69
*1218 TAP_70
*1219 TAP_71
*1220 TAP_72
*1221 TAP_73
*1222 TAP_74
*1223 TAP_75
*1224 TAP_76
*1225 TAP_77
*1226 TAP_78
*1227 TAP_79
*1228 TAP_80
*1229 TAP_81
*1230 TAP_82
*1231 TAP_83
*1232 TAP_84
*1233 TAP_85
*1234 TAP_86
*1235 TAP_87
*1236 TAP_88
*1237 TAP_89
*1238 TAP_90
*1239 TAP_91
*1240 TAP_92
*1241 TAP_93
*1242 TAP_94
*1243 TAP_95
*1244 TAP_96
*1245 TAP_97
*1246 TAP_98
*1247 TAP_99
*1248 input1
*1249 input10
*1250 input11
*1251 input12
*1252 input13
*1253 input14
*1254 input15
*1255 input16
*1256 input17
*1257 input18
*1258 input19
*1259 input2
*1260 input20
*1261 input21
*1262 input22
*1263 input23
*1264 input24
*1265 input25
*1266 input26
*1267 input27
*1268 input28
*1269 input29
*1270 input3
*1271 input30
*1272 input31
*1273 input32
*1274 input33
*1275 input34
*1276 input35
*1277 input36
*1278 input37
*1279 input38
*1280 input39
*1281 input4
*1282 input40
*1283 input41
*1284 input42
*1285 input43
*1286 input44
*1287 input45
*1288 input46
*1289 input47
*1290 input48
*1291 input49
*1292 input5
*1293 input50
*1294 input51
*1295 input52
*1296 input53
*1297 input54
*1298 input55
*1299 input56
*1300 input57
*1301 input58
*1302 input59
*1303 input6
*1304 input60
*1305 input61
*1306 input62
*1307 input63
*1308 input64
*1309 input65
*1310 input66
*1311 input67
*1312 input68
*1313 input69
*1314 input7
*1315 input70
*1316 input71
*1317 input72
*1318 input73
*1319 input8
*1320 input9
*1321 inst_clk_buf
*1322 output100
*1323 output101
*1324 output102
*1325 output103
*1326 output104
*1327 output105
*1328 output106
*1329 output107
*1330 output108
*1331 output109
*1332 output110
*1333 output111
*1334 output112
*1335 output113
*1336 output114
*1337 output115
*1338 output116
*1339 output117
*1340 output118
*1341 output119
*1342 output120
*1343 output121
*1344 output122
*1345 output123
*1346 output124
*1347 output125
*1348 output126
*1349 output127
*1350 output128
*1351 output129
*1352 output130
*1353 output131
*1354 output132
*1355 output133
*1356 output134
*1357 output135
*1358 output136
*1359 output137
*1360 output138
*1361 output139
*1362 output140
*1363 output141
*1364 output142
*1365 output143
*1366 output144
*1367 output145
*1368 output146
*1369 output74
*1370 output75
*1371 output76
*1372 output77
*1373 output78
*1374 output79
*1375 output80
*1376 output81
*1377 output82
*1378 output83
*1379 output84
*1380 output85
*1381 output86
*1382 output87
*1383 output88
*1384 output89
*1385 output90
*1386 output91
*1387 output92
*1388 output93
*1389 output94
*1390 output95
*1391 output96
*1392 output97
*1393 output98
*1394 output99
*1395 strobe_inbuf_0/_0_
*1396 strobe_inbuf_1/_0_
*1397 strobe_inbuf_10/_0_
*1398 strobe_inbuf_11/_0_
*1399 strobe_inbuf_12/_0_
*1400 strobe_inbuf_13/_0_
*1401 strobe_inbuf_14/_0_
*1402 strobe_inbuf_15/_0_
*1403 strobe_inbuf_16/_0_
*1404 strobe_inbuf_17/_0_
*1405 strobe_inbuf_18/_0_
*1406 strobe_inbuf_19/_0_
*1407 strobe_inbuf_2/_0_
*1408 strobe_inbuf_3/_0_
*1409 strobe_inbuf_4/_0_
*1410 strobe_inbuf_5/_0_
*1411 strobe_inbuf_6/_0_
*1412 strobe_inbuf_7/_0_
*1413 strobe_inbuf_8/_0_
*1414 strobe_inbuf_9/_0_
*1415 strobe_outbuf_0/_0_
*1416 strobe_outbuf_1/_0_
*1417 strobe_outbuf_10/_0_
*1418 strobe_outbuf_11/_0_
*1419 strobe_outbuf_12/_0_
*1420 strobe_outbuf_13/_0_
*1421 strobe_outbuf_14/_0_
*1422 strobe_outbuf_15/_0_
*1423 strobe_outbuf_16/_0_
*1424 strobe_outbuf_17/_0_
*1425 strobe_outbuf_18/_0_
*1426 strobe_outbuf_19/_0_
*1427 strobe_outbuf_2/_0_
*1428 strobe_outbuf_3/_0_
*1429 strobe_outbuf_4/_0_
*1430 strobe_outbuf_5/_0_
*1431 strobe_outbuf_6/_0_
*1432 strobe_outbuf_7/_0_
*1433 strobe_outbuf_8/_0_
*1434 strobe_outbuf_9/_0_

*PORTS
FrameStrobe[0] I
FrameStrobe[10] I
FrameStrobe[11] I
FrameStrobe[12] I
FrameStrobe[13] I
FrameStrobe[14] I
FrameStrobe[15] I
FrameStrobe[16] I
FrameStrobe[17] I
FrameStrobe[18] I
FrameStrobe[19] I
FrameStrobe[1] I
FrameStrobe[2] I
FrameStrobe[3] I
FrameStrobe[4] I
FrameStrobe[5] I
FrameStrobe[6] I
FrameStrobe[7] I
FrameStrobe[8] I
FrameStrobe[9] I
FrameStrobe_O[0] O
FrameStrobe_O[10] O
FrameStrobe_O[11] O
FrameStrobe_O[12] O
FrameStrobe_O[13] O
FrameStrobe_O[14] O
FrameStrobe_O[15] O
FrameStrobe_O[16] O
FrameStrobe_O[17] O
FrameStrobe_O[18] O
FrameStrobe_O[19] O
FrameStrobe_O[1] O
FrameStrobe_O[2] O
FrameStrobe_O[3] O
FrameStrobe_O[4] O
FrameStrobe_O[5] O
FrameStrobe_O[6] O
FrameStrobe_O[7] O
FrameStrobe_O[8] O
FrameStrobe_O[9] O
N1END[0] I
N1END[1] I
N1END[2] I
N1END[3] I
N2END[0] I
N2END[1] I
N2END[2] I
N2END[3] I
N2END[4] I
N2END[5] I
N2END[6] I
N2END[7] I
N2MID[0] I
N2MID[1] I
N2MID[2] I
N2MID[3] I
N2MID[4] I
N2MID[5] I
N2MID[6] I
N2MID[7] I
N4END[0] I
N4END[10] I
N4END[11] I
N4END[12] I
N4END[13] I
N4END[14] I
N4END[15] I
N4END[1] I
N4END[2] I
N4END[3] I
N4END[4] I
N4END[5] I
N4END[6] I
N4END[7] I
N4END[8] I
N4END[9] I
NN4END[0] I
NN4END[10] I
NN4END[11] I
NN4END[12] I
NN4END[13] I
NN4END[14] I
NN4END[15] I
NN4END[1] I
NN4END[2] I
NN4END[3] I
NN4END[4] I
NN4END[5] I
NN4END[6] I
NN4END[7] I
NN4END[8] I
NN4END[9] I
S1BEG[0] O
S1BEG[1] O
S1BEG[2] O
S1BEG[3] O
S2BEG[0] O
S2BEG[1] O
S2BEG[2] O
S2BEG[3] O
S2BEG[4] O
S2BEG[5] O
S2BEG[6] O
S2BEG[7] O
S2BEGb[0] O
S2BEGb[1] O
S2BEGb[2] O
S2BEGb[3] O
S2BEGb[4] O
S2BEGb[5] O
S2BEGb[6] O
S2BEGb[7] O
S4BEG[0] O
S4BEG[10] O
S4BEG[11] O
S4BEG[12] O
S4BEG[13] O
S4BEG[14] O
S4BEG[15] O
S4BEG[1] O
S4BEG[2] O
S4BEG[3] O
S4BEG[4] O
S4BEG[5] O
S4BEG[6] O
S4BEG[7] O
S4BEG[8] O
S4BEG[9] O
SS4BEG[0] O
SS4BEG[10] O
SS4BEG[11] O
SS4BEG[12] O
SS4BEG[13] O
SS4BEG[14] O
SS4BEG[15] O
SS4BEG[1] O
SS4BEG[2] O
SS4BEG[3] O
SS4BEG[4] O
SS4BEG[5] O
SS4BEG[6] O
SS4BEG[7] O
SS4BEG[8] O
SS4BEG[9] O
UserCLK I
UserCLKo O

*D_NET *1 0.00235907
*CONN
*P FrameStrobe[0] I
*I *1248:A I *D sky130_fd_sc_hd__buf_1
*CAP
1 FrameStrobe[0] 0.000638041
2 *1248:A 0
3 *1:15 0.000638041
4 *1:15 *1318:A 0.000226295
5 *1:15 *12:17 0
6 *1:15 *210:16 0.000132144
7 *1:15 *222:10 0.000148571
8 *1:15 *226:20 5.21024e-05
9 *1:15 *226:24 5.50049e-05
10 *1:15 *282:20 0.000399374
11 *1:15 *286:10 6.94919e-05
*RES
1 FrameStrobe[0] *1:15 29.79 
2 *1:15 *1248:A 23 
*END

*D_NET *2 0.0017003
*CONN
*P FrameStrobe[10] I
*I *1259:A I *D sky130_fd_sc_hd__buf_1
*CAP
1 FrameStrobe[10] 0.000345418
2 *1259:A 0.000345418
3 *1259:A *1258:A 5.50106e-05
4 *1259:A *1260:A 0.000590667
5 *1259:A *1270:A 6.79437e-05
6 *1259:A *227:10 9.5877e-05
7 *1259:A *228:8 8.41115e-05
8 *1259:A *282:14 0.000115857
*RES
1 FrameStrobe[10] *1259:A 48.3571 
*END

*D_NET *3 0.00146749
*CONN
*P FrameStrobe[11] I
*I *1270:A I *D sky130_fd_sc_hd__buf_1
*CAP
1 FrameStrobe[11] 0.00054997
2 *1270:A 0.00054997
3 *1270:A *1281:A 5.67058e-05
4 *1270:A *227:10 8.62783e-05
5 *1270:A *228:8 4.07715e-05
6 *1270:A *282:14 0.000115847
7 *1259:A *1270:A 6.79437e-05