*SPEF "ieee 1481-1999"
*DESIGN "N_term_RAM_IO"
*DATE "11:11:11 Fri 11 11, 1111"
*VENDOR "OpenRCX"
*PROGRAM "Parallel Extraction"
*VERSION "1.0"
*DESIGN_FLOW "NAME_SCOPE LOCAL" "PIN_CAP NONE"
*DIVIDER /
*DELIMITER :
*BUS_DELIMITER []
*T_UNIT 1 NS
*C_UNIT 1 PF
*R_UNIT 1 OHM
*L_UNIT 1 HENRY

*NAME_MAP
*1 FrameStrobe[0]
*2 FrameStrobe[10]
*3 FrameStrobe[11]
*4 FrameStrobe[12]
*5 FrameStrobe[13]
*6 FrameStrobe[14]
*7 FrameStrobe[15]
*8 FrameStrobe[16]
*9 FrameStrobe[17]
*10 FrameStrobe[18]
*11 FrameStrobe[19]
*12 FrameStrobe[1]
*13 FrameStrobe[2]
*14 FrameStrobe[3]
*15 FrameStrobe[4]
*16 FrameStrobe[5]
*17 FrameStrobe[6]
*18 FrameStrobe[7]
*19 FrameStrobe[8]
*20 FrameStrobe[9]
*21 FrameStrobe_O[0]
*22 FrameStrobe_O[10]
*23 FrameStrobe_O[11]
*24 FrameStrobe_O[12]
*25 FrameStrobe_O[13]
*26 FrameStrobe_O[14]
*27 FrameStrobe_O[15]
*28 FrameStrobe_O[16]
*29 FrameStrobe_O[17]
*30 FrameStrobe_O[18]
*31 FrameStrobe_O[19]
*32 FrameStrobe_O[1]
*33 FrameStrobe_O[2]
*34 FrameStrobe_O[3]
*35 FrameStrobe_O[4]
*36 FrameStrobe_O[5]
*37 FrameStrobe_O[6]
*38 FrameStrobe_O[7]
*39 FrameStrobe_O[8]
*40 FrameStrobe_O[9]
*41 N1END[0]
*42 N1END[1]
*43 N1END[2]
*44 N1END[3]
*45 N2END[0]
*46 N2END[1]
*47 N2END[2]
*48 N2END[3]
*49 N2END[4]
*50 N2END[5]
*51 N2END[6]
*52 N2END[7]
*53 N2MID[0]
*54 N2MID[1]
*55 N2MID[2]
*56 N2MID[3]
*57 N2MID[4]
*58 N2MID[5]
*59 N2MID[6]
*60 N2MID[7]
*61 N4END[0]
*62 N4END[10]
*63 N4END[11]
*64 N4END[12]
*65 N4END[13]
*66 N4END[14]
*67 N4END[15]
*68 N4END[1]
*69 N4END[2]
*70 N4END[3]
*71 N4END[4]
*72 N4END[5]
*73 N4END[6]
*74 N4END[7]
*75 N4END[8]
*76 N4END[9]
*77 S1BEG[0]
*78 S1BEG[1]
*79 S1BEG[2]
*80 S1BEG[3]
*81 S2BEG[0]
*82 S2BEG[1]
*83 S2BEG[2]
*84 S2BEG[3]
*85 S2BEG[4]
*86 S2BEG[5]
*87 S2BEG[6]
*88 S2BEG[7]
*89 S2BEGb[0]
*90 S2BEGb[1]
*91 S2BEGb[2]
*92 S2BEGb[3]
*93 S2BEGb[4]
*94 S2BEGb[5]
*95 S2BEGb[6]
*96 S2BEGb[7]
*97 S4BEG[0]
*98 S4BEG[10]
*99 S4BEG[11]
*100 S4BEG[12]
*101 S4BEG[13]
*102 S4BEG[14]
*103 S4BEG[15]
*104 S4BEG[1]
*105 S4BEG[2]
*106 S4BEG[3]
*107 S4BEG[4]
*108 S4BEG[5]
*109 S4BEG[6]
*110 S4BEG[7]
*111 S4BEG[8]
*112 S4BEG[9]
*113 UserCLK
*114 UserCLKo
*117 FrameStrobe_O_i\[0\]
*118 FrameStrobe_O_i\[10\]
*119 FrameStrobe_O_i\[11\]
*120 FrameStrobe_O_i\[12\]
*121 FrameStrobe_O_i\[13\]
*122 FrameStrobe_O_i\[14\]
*123 FrameStrobe_O_i\[15\]
*124 FrameStrobe_O_i\[16\]
*125 FrameStrobe_O_i\[17\]
*126 FrameStrobe_O_i\[18\]
*127 FrameStrobe_O_i\[19\]
*128 FrameStrobe_O_i\[1\]
*129 FrameStrobe_O_i\[2\]
*130 FrameStrobe_O_i\[3\]
*131 FrameStrobe_O_i\[4\]
*132 FrameStrobe_O_i\[5\]
*133 FrameStrobe_O_i\[6\]
*134 FrameStrobe_O_i\[7\]
*135 FrameStrobe_O_i\[8\]
*136 FrameStrobe_O_i\[9\]
*137 net1
*138 net10
*139 net100
*140 net101
*141 net102
*142 net103
*143 net104
*144 net105
*145 net106
*146 net107
*147 net108
*148 net109
*149 net11
*150 net110
*151 net111
*152 net112
*153 net113
*154 net114
*155 net12
*156 net13
*157 net14
*158 net15
*159 net16
*160 net17
*161 net18
*162 net19
*163 net2
*164 net20
*165 net21
*166 net22
*167 net23
*168 net24
*169 net25
*170 net26
*171 net27
*172 net28
*173 net29
*174 net3
*175 net30
*176 net31
*177 net32
*178 net33
*179 net34
*180 net35
*181 net36
*182 net37
*183 net38
*184 net39
*185 net4
*186 net40
*187 net41
*188 net42
*189 net43
*190 net44
*191 net45
*192 net46
*193 net47
*194 net48
*195 net49
*196 net5
*197 net50
*198 net51
*199 net52
*200 net53
*201 net54
*202 net55
*203 net56
*204 net57
*205 net58
*206 net59
*207 net6
*208 net60
*209 net61
*210 net62
*211 net63
*212 net64
*213 net65
*214 net66
*215 net67
*216 net68
*217 net69
*218 net7
*219 net70
*220 net71
*221 net72
*222 net73
*223 net74
*224 net75
*225 net76
*226 net77
*227 net78
*228 net79
*229 net8
*230 net80
*231 net81
*232 net82
*233 net83
*234 net84
*235 net85
*236 net86
*237 net87
*238 net88
*239 net89
*240 net9
*241 net90
*242 net91
*243 net92
*244 net93
*245 net94
*246 net95
*247 net96
*248 net97
*249 net98
*250 net99
*251 FILLER_0_0_110
*252 FILLER_0_0_113
*253 FILLER_0_0_128
*254 FILLER_0_0_138
*255 FILLER_0_0_151
*256 FILLER_0_0_222
*257 FILLER_0_0_3
*258 FILLER_0_0_85
*259 FILLER_0_10_109
*260 FILLER_0_10_121
*261 FILLER_0_10_133
*262 FILLER_0_10_139
*263 FILLER_0_10_141
*264 FILLER_0_10_15
*265 FILLER_0_10_153
*266 FILLER_0_10_165
*267 FILLER_0_10_177
*268 FILLER_0_10_189
*269 FILLER_0_10_195
*270 FILLER_0_10_197
*271 FILLER_0_10_209
*272 FILLER_0_10_221
*273 FILLER_0_10_233
*274 FILLER_0_10_245
*275 FILLER_0_10_251
*276 FILLER_0_10_27
*277 FILLER_0_10_29
*278 FILLER_0_10_3
*279 FILLER_0_10_41
*280 FILLER_0_10_53
*281 FILLER_0_10_65
*282 FILLER_0_10_77
*283 FILLER_0_10_83
*284 FILLER_0_10_85
*285 FILLER_0_10_97
*286 FILLER_0_11_105
*287 FILLER_0_11_111
*288 FILLER_0_11_113
*289 FILLER_0_11_125
*290 FILLER_0_11_137
*291 FILLER_0_11_149
*292 FILLER_0_11_15
*293 FILLER_0_11_161
*294 FILLER_0_11_167
*295 FILLER_0_11_169
*296 FILLER_0_11_181
*297 FILLER_0_11_193
*298 FILLER_0_11_205
*299 FILLER_0_11_217
*300 FILLER_0_11_223
*301 FILLER_0_11_225
*302 FILLER_0_11_237
*303 FILLER_0_11_249
*304 FILLER_0_11_27
*305 FILLER_0_11_3
*306 FILLER_0_11_39
*307 FILLER_0_11_51
*308 FILLER_0_11_55
*309 FILLER_0_11_57
*310 FILLER_0_11_69
*311 FILLER_0_11_81
*312 FILLER_0_11_93
*313 FILLER_0_12_109
*314 FILLER_0_12_121
*315 FILLER_0_12_133
*316 FILLER_0_12_139
*317 FILLER_0_12_141
*318 FILLER_0_12_15
*319 FILLER_0_12_153
*320 FILLER_0_12_165
*321 FILLER_0_12_171
*322 FILLER_0_12_183
*323 FILLER_0_12_195
*324 FILLER_0_12_197
*325 FILLER_0_12_209
*326 FILLER_0_12_221
*327 FILLER_0_12_233
*328 FILLER_0_12_245
*329 FILLER_0_12_251
*330 FILLER_0_12_27
*331 FILLER_0_12_29
*332 FILLER_0_12_3
*333 FILLER_0_12_41
*334 FILLER_0_12_53
*335 FILLER_0_12_65
*336 FILLER_0_12_77
*337 FILLER_0_12_83
*338 FILLER_0_12_85
*339 FILLER_0_12_97
*340 FILLER_0_13_101
*341 FILLER_0_13_106
*342 FILLER_0_13_113
*343 FILLER_0_13_119
*344 FILLER_0_13_127
*345 FILLER_0_13_132
*346 FILLER_0_13_145
*347 FILLER_0_13_15
*348 FILLER_0_13_153
*349 FILLER_0_13_160
*350 FILLER_0_13_178
*351 FILLER_0_13_184
*352 FILLER_0_13_203
*353 FILLER_0_13_210
*354 FILLER_0_13_218
*355 FILLER_0_13_223
*356 FILLER_0_13_225
*357 FILLER_0_13_23
*358 FILLER_0_13_231
*359 FILLER_0_13_236
*360 FILLER_0_13_251
*361 FILLER_0_13_29
*362 FILLER_0_13_41
*363 FILLER_0_13_49
*364 FILLER_0_13_57
*365 FILLER_0_13_69
*366 FILLER_0_13_75
*367 FILLER_0_13_82
*368 FILLER_0_13_85
*369 FILLER_0_13_9
*370 FILLER_0_13_93
*371 FILLER_0_1_104
*372 FILLER_0_1_122
*373 FILLER_0_1_130
*374 FILLER_0_1_153
*375 FILLER_0_1_167
*376 FILLER_0_1_17
*377 FILLER_0_1_29
*378 FILLER_0_1_3
*379 FILLER_0_1_41
*380 FILLER_0_1_57
*381 FILLER_0_1_66
*382 FILLER_0_1_74
*383 FILLER_0_1_79
*384 FILLER_0_2_103
*385 FILLER_0_2_107
*386 FILLER_0_2_114
*387 FILLER_0_2_118
*388 FILLER_0_2_12
*389 FILLER_0_2_127
*390 FILLER_0_2_139
*391 FILLER_0_2_141
*392 FILLER_0_2_149
*393 FILLER_0_2_153
*394 FILLER_0_2_161
*395 FILLER_0_2_166
*396 FILLER_0_2_179
*397 FILLER_0_2_187
*398 FILLER_0_2_191
*399 FILLER_0_2_195
*400 FILLER_0_2_200
*401 FILLER_0_2_208
*402 FILLER_0_2_220
*403 FILLER_0_2_226
*404 FILLER_0_2_24
*405 FILLER_0_2_251
*406 FILLER_0_2_29
*407 FILLER_0_2_41
*408 FILLER_0_2_53
*409 FILLER_0_2_65
*410 FILLER_0_2_80
*411 FILLER_0_2_85
*412 FILLER_0_2_97
*413 FILLER_0_3_103
*414 FILLER_0_3_111
*415 FILLER_0_3_113
*416 FILLER_0_3_125
*417 FILLER_0_3_137
*418 FILLER_0_3_149
*419 FILLER_0_3_15
*420 FILLER_0_3_158
*421 FILLER_0_3_166
*422 FILLER_0_3_169
*423 FILLER_0_3_181
*424 FILLER_0_3_193
*425 FILLER_0_3_205
*426 FILLER_0_3_217
*427 FILLER_0_3_223
*428 FILLER_0_3_225
*429 FILLER_0_3_231
*430 FILLER_0_3_250
*431 FILLER_0_3_27
*432 FILLER_0_3_3
*433 FILLER_0_3_39
*434 FILLER_0_3_51
*435 FILLER_0_3_55
*436 FILLER_0_3_57
*437 FILLER_0_3_69
*438 FILLER_0_3_75
*439 FILLER_0_3_79
*440 FILLER_0_3_91
*441 FILLER_0_4_102
*442 FILLER_0_4_106
*443 FILLER_0_4_114
*444 FILLER_0_4_119
*445 FILLER_0_4_127
*446 FILLER_0_4_132
*447 FILLER_0_4_147
*448 FILLER_0_4_15
*449 FILLER_0_4_153
*450 FILLER_0_4_157
*451 FILLER_0_4_169
*452 FILLER_0_4_181
*453 FILLER_0_4_193
*454 FILLER_0_4_197
*455 FILLER_0_4_208
*456 FILLER_0_4_220
*457 FILLER_0_4_232
*458 FILLER_0_4_240
*459 FILLER_0_4_250
*460 FILLER_0_4_27
*461 FILLER_0_4_29
*462 FILLER_0_4_3
*463 FILLER_0_4_41
*464 FILLER_0_4_53
*465 FILLER_0_4_65
*466 FILLER_0_4_77
*467 FILLER_0_4_83
*468 FILLER_0_4_85
*469 FILLER_0_4_94
*470 FILLER_0_5_100
*471 FILLER_0_5_105
*472 FILLER_0_5_111
*473 FILLER_0_5_113
*474 FILLER_0_5_118
*475 FILLER_0_5_126
*476 FILLER_0_5_131
*477 FILLER_0_5_143
*478 FILLER_0_5_15
*479 FILLER_0_5_155
*480 FILLER_0_5_167
*481 FILLER_0_5_169
*482 FILLER_0_5_181
*483 FILLER_0_5_193
*484 FILLER_0_5_201
*485 FILLER_0_5_206
*486 FILLER_0_5_218
*487 FILLER_0_5_225
*488 FILLER_0_5_237
*489 FILLER_0_5_245
*490 FILLER_0_5_250
*491 FILLER_0_5_27
*492 FILLER_0_5_3
*493 FILLER_0_5_39
*494 FILLER_0_5_51
*495 FILLER_0_5_55
*496 FILLER_0_5_57
*497 FILLER_0_5_69
*498 FILLER_0_5_81
*499 FILLER_0_5_92
*500 FILLER_0_6_109
*501 FILLER_0_6_121
*502 FILLER_0_6_133
*503 FILLER_0_6_139
*504 FILLER_0_6_141
*505 FILLER_0_6_15
*506 FILLER_0_6_153
*507 FILLER_0_6_165
*508 FILLER_0_6_177
*509 FILLER_0_6_189
*510 FILLER_0_6_195
*511 FILLER_0_6_197
*512 FILLER_0_6_209
*513 FILLER_0_6_221
*514 FILLER_0_6_233
*515 FILLER_0_6_245
*516 FILLER_0_6_251
*517 FILLER_0_6_27
*518 FILLER_0_6_29
*519 FILLER_0_6_3
*520 FILLER_0_6_41
*521 FILLER_0_6_53
*522 FILLER_0_6_65
*523 FILLER_0_6_77
*524 FILLER_0_6_83
*525 FILLER_0_6_85
*526 FILLER_0_6_97
*527 FILLER_0_7_105
*528 FILLER_0_7_111
*529 FILLER_0_7_113
*530 FILLER_0_7_125
*531 FILLER_0_7_137
*532 FILLER_0_7_149
*533 FILLER_0_7_15
*534 FILLER_0_7_161
*535 FILLER_0_7_167
*536 FILLER_0_7_169
*537 FILLER_0_7_181
*538 FILLER_0_7_193
*539 FILLER_0_7_205
*540 FILLER_0_7_217
*541 FILLER_0_7_223
*542 FILLER_0_7_225
*543 FILLER_0_7_237
*544 FILLER_0_7_249
*545 FILLER_0_7_27
*546 FILLER_0_7_3
*547 FILLER_0_7_39
*548 FILLER_0_7_51
*549 FILLER_0_7_55
*550 FILLER_0_7_57
*551 FILLER_0_7_69
*552 FILLER_0_7_81
*553 FILLER_0_7_93
*554 FILLER_0_8_109
*555 FILLER_0_8_121
*556 FILLER_0_8_133
*557 FILLER_0_8_139
*558 FILLER_0_8_141
*559 FILLER_0_8_15
*560 FILLER_0_8_153
*561 FILLER_0_8_165
*562 FILLER_0_8_177
*563 FILLER_0_8_189
*564 FILLER_0_8_195
*565 FILLER_0_8_197
*566 FILLER_0_8_209
*567 FILLER_0_8_221
*568 FILLER_0_8_233
*569 FILLER_0_8_245
*570 FILLER_0_8_251
*571 FILLER_0_8_27
*572 FILLER_0_8_29
*573 FILLER_0_8_3
*574 FILLER_0_8_41
*575 FILLER_0_8_53
*576 FILLER_0_8_65
*577 FILLER_0_8_77
*578 FILLER_0_8_83
*579 FILLER_0_8_85
*580 FILLER_0_8_97
*581 FILLER_0_9_105
*582 FILLER_0_9_111
*583 FILLER_0_9_113
*584 FILLER_0_9_125
*585 FILLER_0_9_137
*586 FILLER_0_9_149
*587 FILLER_0_9_15
*588 FILLER_0_9_161
*589 FILLER_0_9_167
*590 FILLER_0_9_169
*591 FILLER_0_9_181
*592 FILLER_0_9_193
*593 FILLER_0_9_205
*594 FILLER_0_9_217
*595 FILLER_0_9_223
*596 FILLER_0_9_225
*597 FILLER_0_9_237
*598 FILLER_0_9_249
*599 FILLER_0_9_27
*600 FILLER_0_9_3
*601 FILLER_0_9_39
*602 FILLER_0_9_51
*603 FILLER_0_9_55
*604 FILLER_0_9_57
*605 FILLER_0_9_69
*606 FILLER_0_9_81
*607 FILLER_0_9_93
*608 Inst_N_term_RAM_IO_switch_matrix/_00_
*609 Inst_N_term_RAM_IO_switch_matrix/_01_
*610 Inst_N_term_RAM_IO_switch_matrix/_02_
*611 Inst_N_term_RAM_IO_switch_matrix/_03_
*612 Inst_N_term_RAM_IO_switch_matrix/_04_
*613 Inst_N_term_RAM_IO_switch_matrix/_05_
*614 Inst_N_term_RAM_IO_switch_matrix/_06_
*615 Inst_N_term_RAM_IO_switch_matrix/_07_
*616 Inst_N_term_RAM_IO_switch_matrix/_08_
*617 Inst_N_term_RAM_IO_switch_matrix/_09_
*618 Inst_N_term_RAM_IO_switch_matrix/_10_
*619 Inst_N_term_RAM_IO_switch_matrix/_11_
*620 Inst_N_term_RAM_IO_switch_matrix/_12_
*621 Inst_N_term_RAM_IO_switch_matrix/_13_
*622 Inst_N_term_RAM_IO_switch_matrix/_14_
*623 Inst_N_term_RAM_IO_switch_matrix/_15_
*624 Inst_N_term_RAM_IO_switch_matrix/_16_
*625 Inst_N_term_RAM_IO_switch_matrix/_17_
*626 Inst_N_term_RAM_IO_switch_matrix/_18_
*627 Inst_N_term_RAM_IO_switch_matrix/_19_
*628 Inst_N_term_RAM_IO_switch_matrix/_20_
*629 Inst_N_term_RAM_IO_switch_matrix/_21_
*630 Inst_N_term_RAM_IO_switch_matrix/_22_
*631 Inst_N_term_RAM_IO_switch_matrix/_23_
*632 Inst_N_term_RAM_IO_switch_matrix/_24_
*633 Inst_N_term_RAM_IO_switch_matrix/_25_
*634 Inst_N_term_RAM_IO_switch_matrix/_26_
*635 Inst_N_term_RAM_IO_switch_matrix/_27_
*636 Inst_N_term_RAM_IO_switch_matrix/_28_
*637 Inst_N_term_RAM_IO_switch_matrix/_29_
*638 Inst_N_term_RAM_IO_switch_matrix/_30_
*639 Inst_N_term_RAM_IO_switch_matrix/_31_
*640 Inst_N_term_RAM_IO_switch_matrix/_32_
*641 Inst_N_term_RAM_IO_switch_matrix/_33_
*642 Inst_N_term_RAM_IO_switch_matrix/_34_
*643 Inst_N_term_RAM_IO_switch_matrix/_35_
*644 PHY_0
*645 PHY_1
*646 PHY_10
*647 PHY_11
*648 PHY_12
*649 PHY_13
*650 PHY_14
*651 PHY_15
*652 PHY_16
*653 PHY_17
*654 PHY_18
*655 PHY_19
*656 PHY_2
*657 PHY_20
*658 PHY_21
*659 PHY_22
*660 PHY_23
*661 PHY_24
*662 PHY_25
*663 PHY_26
*664 PHY_27
*665 PHY_3
*666 PHY_4
*667 PHY_5
*668 PHY_6
*669 PHY_7
*670 PHY_8
*671 PHY_9
*672 TAP_28
*673 TAP_29
*674 TAP_30
*675 TAP_31
*676 TAP_32
*677 TAP_33
*678 TAP_34
*679 TAP_35
*680 TAP_36
*681 TAP_37
*682 TAP_38
*683 TAP_39
*684 TAP_40
*685 TAP_41
*686 TAP_42
*687 TAP_43
*688 TAP_44
*689 TAP_45
*690 TAP_46
*691 TAP_47
*692 TAP_48
*693 TAP_49
*694 TAP_50
*695 TAP_51
*696 TAP_52
*697 TAP_53
*698 TAP_54
*699 TAP_55
*700 TAP_56
*701 TAP_57
*702 TAP_58
*703 TAP_59
*704 TAP_60
*705 TAP_61
*706 TAP_62
*707 TAP_63
*708 TAP_64
*709 TAP_65
*710 TAP_66
*711 TAP_67
*712 TAP_68
*713 TAP_69
*714 TAP_70
*715 TAP_71
*716 TAP_72
*717 TAP_73
*718 TAP_74
*719 TAP_75
*720 TAP_76
*721 TAP_77
*722 TAP_78
*723 TAP_79
*724 TAP_80
*725 TAP_81
*726 TAP_82
*727 TAP_83
*728 TAP_84
*729 TAP_85
*730 TAP_86
*731 TAP_87
*732 TAP_88
*733 TAP_89
*734 TAP_90
*735 TAP_91
*736 input1
*737 input10
*738 input11
*739 input12
*740 input13
*741 input14
*742 input15
*743 input16
*744 input17
*745 input18
*746 input19
*747 input2
*748 input20
*749 input21
*750 input22
*751 input23
*752 input24
*753 input25
*754 input26
*755 input27
*756 input28
*757 input29
*758 input3
*759 input30
*760 input31
*761 input32
*762 input33
*763 input34
*764 input35
*765 input36
*766 input37
*767 input38
*768 input39
*769 input4
*770 input40
*771 input41
*772 input42
*773 input43
*774 input44
*775 input45
*776 input46
*777 input47
*778 input48
*779 input49
*780 input5
*781 input50
*782 input51
*783 input52
*784 input53
*785 input54
*786 input55
*787 input56
*788 input57
*789 input6
*790 input7
*791 input8
*792 input9
*793 inst_clk_buf
*794 output100
*795 output101
*796 output102
*797 output103
*798 output104
*799 output105
*800 output106
*801 output107
*802 output108
*803 output109
*804 output110
*805 output111
*806 output112
*807 output113
*808 output114
*809 output58
*810 output59
*811 output60
*812 output61
*813 output62
*814 output63
*815 output64
*816 output65
*817 output66
*818 output67
*819 output68
*820 output69
*821 output70
*822 output71
*823 output72
*824 output73
*825 output74
*826 output75
*827 output76
*828 output77
*829 output78
*830 output79
*831 output80
*832 output81
*833 output82
*834 output83
*835 output84
*836 output85
*837 output86
*838 output87
*839 output88
*840 output89
*841 output90
*842 output91
*843 output92
*844 output93
*845 output94
*846 output95
*847 output96
*848 output97
*849 output98
*850 output99
*851 strobe_inbuf_0/_0_
*852 strobe_inbuf_1/_0_
*853 strobe_inbuf_10/_0_
*854 strobe_inbuf_11/_0_
*855 strobe_inbuf_12/_0_
*856 strobe_inbuf_13/_0_
*857 strobe_inbuf_14/_0_
*858 strobe_inbuf_15/_0_
*859 strobe_inbuf_16/_0_
*860 strobe_inbuf_17/_0_
*861 strobe_inbuf_18/_0_
*862 strobe_inbuf_19/_0_
*863 strobe_inbuf_2/_0_
*864 strobe_inbuf_3/_0_
*865 strobe_inbuf_4/_0_
*866 strobe_inbuf_5/_0_
*867 strobe_inbuf_6/_0_
*868 strobe_inbuf_7/_0_
*869 strobe_inbuf_8/_0_
*870 strobe_inbuf_9/_0_
*871 strobe_outbuf_0/_0_
*872 strobe_outbuf_1/_0_
*873 strobe_outbuf_10/_0_
*874 strobe_outbuf_11/_0_
*875 strobe_outbuf_12/_0_
*876 strobe_outbuf_13/_0_
*877 strobe_outbuf_14/_0_
*878 strobe_outbuf_15/_0_
*879 strobe_outbuf_16/_0_
*880 strobe_outbuf_17/_0_
*881 strobe_outbuf_18/_0_
*882 strobe_outbuf_19/_0_
*883 strobe_outbuf_2/_0_
*884 strobe_outbuf_3/_0_
*885 strobe_outbuf_4/_0_
*886 strobe_outbuf_5/_0_
*887 strobe_outbuf_6/_0_
*888 strobe_outbuf_7/_0_
*889 strobe_outbuf_8/_0_
*890 strobe_outbuf_9/_0_

*PORTS
FrameStrobe[0] I
FrameStrobe[10] I
FrameStrobe[11] I
FrameStrobe[12] I
FrameStrobe[13] I
FrameStrobe[14] I
FrameStrobe[15] I
FrameStrobe[16] I
FrameStrobe[17] I
FrameStrobe[18] I
FrameStrobe[19] I
FrameStrobe[1] I
FrameStrobe[2] I
FrameStrobe[3] I
FrameStrobe[4] I
FrameStrobe[5] I
FrameStrobe[6] I
FrameStrobe[7] I
FrameStrobe[8] I
FrameStrobe[9] I
FrameStrobe_O[0] O
FrameStrobe_O[10] O
FrameStrobe_O[11] O
FrameStrobe_O[12] O
FrameStrobe_O[13] O
FrameStrobe_O[14] O
FrameStrobe_O[15] O
FrameStrobe_O[16] O
FrameStrobe_O[17] O
FrameStrobe_O[18] O
FrameStrobe_O[19] O
FrameStrobe_O[1] O
FrameStrobe_O[2] O
FrameStrobe_O[3] O
FrameStrobe_O[4] O
FrameStrobe_O[5] O
FrameStrobe_O[6] O
FrameStrobe_O[7] O
FrameStrobe_O[8] O
FrameStrobe_O[9] O
N1END[0] I
N1END[1] I
N1END[2] I
N1END[3] I
N2END[0] I
N2END[1] I
N2END[2] I
N2END[3] I
N2END[4] I
N2END[5] I
N2END[6] I
N2END[7] I
N2MID[0] I
N2MID[1] I
N2MID[2] I
N2MID[3] I
N2MID[4] I
N2MID[5] I
N2MID[6] I
N2MID[7] I
N4END[0] I
N4END[10] I
N4END[11] I
N4END[12] I
N4END[13] I
N4END[14] I
N4END[15] I
N4END[1] I
N4END[2] I
N4END[3] I
N4END[4] I
N4END[5] I
N4END[6] I
N4END[7] I
N4END[8] I
N4END[9] I
S1BEG[0] O
S1BEG[1] O
S1BEG[2] O
S1BEG[3] O
S2BEG[0] O
S2BEG[1] O
S2BEG[2] O
S2BEG[3] O
S2BEG[4] O
S2BEG[5] O
S2BEG[6] O
S2BEG[7] O
S2BEGb[0] O
S2BEGb[1] O
S2BEGb[2] O
S2BEGb[3] O
S2BEGb[4] O
S2BEGb[5] O
S2BEGb[6] O
S2BEGb[7] O
S4BEG[0] O
S4BEG[10] O
S4BEG[11] O
S4BEG[12] O
S4BEG[13] O
S4BEG[14] O
S4BEG[15] O
S4BEG[1] O
S4BEG[2] O
S4BEG[3] O
S4BEG[4] O
S4BEG[5] O
S4BEG[6] O
S4BEG[7] O
S4BEG[8] O
S4BEG[9] O
UserCLK I
UserCLKo O

*D_NET *1 0.00314874
*CONN
*P FrameStrobe[0] I
*I *736:A I *D sky130_fd_sc_hd__clkbuf_1
*CAP
1 FrameStrobe[0] 0.000511191
2 *736:A 9.59272e-05
3 *1:15 0.000607118
4 *736:A *788:A 0.000141215
5 *736:A *14:17 0.0001074
6 *736:A *137:12 0.000183788
7 *736:A *155:10 5.50106e-05
8 *1:15 *12:17 0.000206615
9 *1:15 *13:17 0.000393293
10 *1:15 *14:17 0
11 *1:15 *15:17 0
12 *1:15 *16:15 5.94125e-05
13 *1:15 *17:19 6.87724e-05
14 *1:15 *113:13 4.8694e-05
15 *1:15 *158:16 0.000607161
16 *1:15 *159:16 5.60292e-05
17 *1:15 *194:18 7.11472e-06
*RES
1 FrameStrobe[0] *1:15 44.2929 
2 *1:15 *736:A 41.5007 
*END

*D_NET *2 0.0030905
*CONN
*P FrameStrobe[10] I
*I *747:A I *D sky130_fd_sc_hd__buf_1
*CAP
1 FrameStrobe[10] 0.000698071
2 *747:A 0
3 *2:13 0.000698071
4 *2:13 *3:9 0
5 *2:13 *4:13 0
6 *2:13 *8:19 0.000105175
7 *2:13 *9:27 0.000246336
8 *2:13 *10:17 0.000258663
9 *2:13 *18:13 0
10 *2:13 *19:17 0.000359193
11 *2:13 *20:13 0.000205593
12 *2:13 *124:14 4.59507e-05
13 *2:13 *157:8 0.000334184
14 *2:13 *212:10 7.30355e-05
15 *2:13 *212:14 6.62286e-05
*RES
1 FrameStrobe[10] *2:13 32.7314 
2 *2:13 *747:A 23 
*END

*D_NET *3 0.003258
*CONN
*P FrameStrobe[11] I
*I *758:A I *D sky130_fd_sc_hd__clkbuf_1
*CAP
1 FrameStrobe[11] 0.000753814
2 *758:A 0
3 *3:9 0.000753814
4 *3:9 *862:A 1.32314e-05
5 *3:9 *4:13 0.000344732
6 *3:9 *15:17 3.63845e-05
7 *3:9 *17:19 0.00018382
8 *3:9 *20:13 7.36121e-05
9 *3:9 *149:8 7.20415e-05
10 *3:9 *158:8 0.000221193
11 *3:9 *160:8 0.000114092
12 *3:9 *164:20 9.84851e-05
13 *3:9 *174:6 6.17437e-06
14 *3:9 *196:8 4.38329e-05
15 *3:9 *207:20 6.16531e-05
16 *3:9 *215:12 0
17 *3:9 *218:14 0.000481119
18 *2:13 *3:9 0
*RES
1 FrameStrobe[11] *3:9 33.9536 
2 *3:9 *758:A 23 
*END

*D_NET *4 0.00206856
*CONN
*P FrameStrobe[12] I
*I *769:A I *D sky130_fd_sc_hd__buf_1
*CAP
1 FrameStrobe[12] 0.000551233
2 *769:A 0
3 *4:13 0.000551233
4 *4:13 *856:A 5.50049e-05
5 *4:13 *859:A 5.20012e-05
6 *4:13 *5:9 0
7 *4:13 *6:19 3.28409e-05
8 *4:13 *7:13 0
9 *4:13 *9:13 9.6078e-05
10 *4:13 *17:19 0.00018382
11 *4:13 *159:8 2.79004e-05
12 *4:13 *162:12 0.000173717
13 *2:13 *4:13 0
14 *3:9 *4:13 0.000344732
*RES
1 FrameStrobe[12] *4:13 29.0857 
2 *4:13 *769:A 23 
*END

*D_NET *5 0.00287008
*CONN
*P FrameStrobe[13] I
*I *780:A I *D sky130_fd_sc_hd__clkbuf_1
*CAP
1 FrameStrobe[13] 0.000704438
2 *780:A 0
3 *5:9 0.000704438
4 *5:9 *857:A 5.3304e-05
5 *5:9 *859:A 0.00012331
6 *5:9 *6:19 0.000132604
7 *5:9 *11:15 5.3304e-05
8 *5:9 *16:15 0.00014411
9 *5:9 *19:17 0.00021356
10 *5:9 *121:10 0.000134186
11 *5:9 *159:8 8.85189e-05
12 *5:9 *214:12 0.000357191
13 *5:9 *215:12 0.000161121
14 *4:13 *5:9 0
*RES
1 FrameStrobe[13] *5:9 31.0121 
2 *5:9 *780:A 23 
*END

*D_NET *6 0.00317224
*CONN
*P FrameStrobe[14] I
*I *789:A I *D sky130_fd_sc_hd__clkbuf_1
*CAP
1 FrameStrobe[14] 0.000632477
2 *789:A 0
3 *6:19 0.000632477
4 *6:19 *856:A 9.84794e-05
5 *6:19 *881:A 7.22136e-05
6 *6:19 *7:13 0.000399713
7 *6:19 *9:27 5.3304e-05
8 *6:19 *16:15 6.67764e-05
9 *6:19 *121:10 0.00053019
10 *6:19 *138:12 0.000389832
11 *6:19 *164:10 8.62876e-05
12 *6:19 *185:8 4.5051e-05
13 *4:13 *6:19 3.28409e-05
14 *5:9 *6:19 0.000132604
*RES
1 FrameStrobe[14] *6:19 35.4657 
2 *6:19 *789:A 23 
*END

*D_NET *7 0.00308055
*CONN
*P FrameStrobe[15] I
*I *790:A I *D sky130_fd_sc_hd__clkbuf_1
*CAP
1 FrameStrobe[15] 0.000905997
2 *790:A 0
3 *7:13 0.000905997
4 *7:13 *862:A 4.07999e-05
5 *7:13 *8:19 0
6 *7:13 *164:10 0.000592023
7 *7:13 *164:20 0.000236021
8 *7:13 *210:12 0
9 *4:13 *7:13 0
10 *6:19 *7:13 0.000399713
*RES
1 FrameStrobe[15] *7:13 37.33 
2 *7:13 *790:A 23 
*END

*D_NET *8 0.00391219
*CONN
*P FrameStrobe[16] I
*I *791:A I *D sky130_fd_sc_hd__clkbuf_1
*CAP
1 FrameStrobe[16] 0.00132757
2 *791:A 0
3 *8:19 0.00132757
4 *8:19 *9:13 0.000261632
5 *8:19 *162:24 0.000293571
6 *8:19 *207:10 8.62876e-05
7 *8:19 *210:12 0.000429624
8 *8:19 *218:14 8.07612e-05
9 *2:13 *8:19 0.000105175
10 *7:13 *8:19 0
*RES
1 FrameStrobe[16] *8:19 49.3802 
2 *8:19 *791:A 23 
*END

*D_NET *9 0.00434699
*CONN
*P FrameStrobe[17] I
*I *792:A I *D sky130_fd_sc_hd__clkbuf_1
*CAP
1 FrameStrobe[17] 0.000658164
2 *792:A 0
3 *9:27 0.000557242
4 *9:13 0.00121541
5 *9:13 *859:A 9.7017e-05
6 *9:13 *876:A 4.96717e-05
7 *9:13 *10:9 0.000252577
8 *9:13 *19:17 9.58714e-05
9 *9:13 *210:10 6.86884e-05
10 *9:13 *210:12 6.48049e-05
11 *9:27 *10:17 9.41704e-05
12 *9:27 *20:13 0.000120728
13 *9:27 *125:10 1.57571e-05
14 *9:27 *138:12 8.48502e-06
15 *9:27 *162:24 7.85211e-05
16 *9:27 *185:8 0.000257609
17 *9:27 *218:14 5.49259e-05
18 *2:13 *9:27 0.000246336
19 *4:13 *9:13 9.6078e-05
20 *6:19 *9:27 5.3304e-05
21 *8:19 *9:13 0.000261632
*RES
1 FrameStrobe[17] *9:13 45.9604 
2 *9:13 *9:27 38.1717 
3 *9:27 *792:A 23 
*END

*D_NET *10 0.00427276
*CONN
*P FrameStrobe[18] I
*I *737:A I *D sky130_fd_sc_hd__clkbuf_1
*CAP
1 FrameStrobe[18] 0.00113779
2 *737:A 0
3 *10:17 0.000230584
4 *10:9 0.00136837
5 *10:9 *746:A 2.79662e-05
6 *10:9 *748:A 2.94414e-05
7 *10:9 *880:A 7.65282e-05
8 *10:9 *11:15 0.000250471
9 *10:9 *160:20 0.000221084
10 *10:9 *162:12 9.41704e-05
11 *10:9 *210:12 0
12 *10:17 *18:13 0
13 *10:17 *124:14 8.72173e-05
14 *10:17 *125:10 6.17437e-06
15 *10:17 *138:12 6.17437e-06
16 *10:17 *212:10 0.000131381
17 *2:13 *10:17 0.000258663
18 *9:13 *10:9 0.000252577
19 *9:27 *10:17 9.41704e-05
*RES
1 FrameStrobe[18] *10:9 36.7086 
2 *10:9 *10:17 34.7643 
3 *10:17 *737:A 23 
*END

*D_NET *11 0.00313804
*CONN
*P FrameStrobe[19] I
*I *738:A I *D sky130_fd_sc_hd__clkbuf_1
*CAP
1 FrameStrobe[19] 0.00125882
2 *738:A 0
3 *11:15 0.00125882
4 *11:15 *857:A 0.000135001
5 *11:15 *18:13 0
6 *11:15 *122:12 1.94236e-05
7 *11:15 *210:12 0
8 *11:15 *229:8 0.000162203
9 *5:9 *11:15 5.3304e-05
10 *10:9 *11:15 0.000250471
*RES
1 FrameStrobe[19] *11:15 43.1093 
2 *11:15 *738:A 23 
*END

*D_NET *12 0.00317332
*CONN
*P FrameStrobe[1] I
*I *739:A I *D sky130_fd_sc_hd__clkbuf_1
*CAP
1 FrameStrobe[1] 0.00068244
2 *739:A 0
3 *12:17 0.00068244
4 *12:17 *13:17 0.000178258
5 *12:17 *14:17 0
6 *12:17 *18:13 6.33614e-05
7 *12:17 *113:13 0.000481948
8 *12:17 *159:16 0.000850146
9 *12:17 *187:26 2.81085e-05
10 *1:15 *12:17 0.000206615
*RES
1 FrameStrobe[1] *12:17 47.6486 
2 *12:17 *739:A 38 
*END

*D_NET *13 0.00309162
*CONN
*P FrameStrobe[2] I
*I *740:A I *D sky130_fd_sc_hd__clkbuf_1
*CAP
1 FrameStrobe[2] 0.000500126
2 *740:A 4.45235e-05
3 *13:17 0.00054465
4 *740:A *14:17 9.41704e-05
5 *740:A *17:19 2.02872e-05
6 *740:A *19:17 5.3304e-05
7 *13:17 *14:17 9.83031e-05
8 *13:17 *15:17 6.9805e-05
9 *13:17 *16:15 0.000480242
10 *13:17 *18:13 3.71198e-05
11 *13:17 *19:17 0.00026599
12 *13:17 *158:16 0.000234159
13 *13:17 *159:16 7.73854e-05
14 *1:15 *13:17 0.000393293
15 *12:17 *13:17 0.000178258
*RES
1 FrameStrobe[2] *13:17 46.6957 
2 *13:17 *740:A 39.0979 
*END

*D_NET *14 0.00290445
*CONN
*P FrameStrobe[3] I
*I *741:A I *D sky130_fd_sc_hd__buf_1
*CAP
1 FrameStrobe[3] 0.000991807
2 *741:A 0
3 *14:17 0.000991807
4 *14:17 *788:A 0.000230081
5 *14:17 *15:17 9.55298e-05
6 *14:17 *17:19 0.000177701
7 *14:17 *19:17 6.53382e-05
8 *14:17 *137:12 2.9491e-05
9 *14:17 *155:10 2.28212e-05
10 *14:17 *187:26 0
11 *14:17 *194:18 0
12 *736:A *14:17 0.0001074
13 *740:A *14:17 9.41704e-05
14 *1:15 *14:17 0
15 *12:17 *14:17 0
16 *13:17 *14:17 9.83031e-05
*RES
1 FrameStrobe[3] *14:17 34.2021 
2 *14:17 *741:A 23 
*END

*D_NET *15 0.00336643
*CONN
*P FrameStrobe[4] I
*I *742:A I *D sky130_fd_sc_hd__buf_1
*CAP
1 FrameStrobe[4] 0.000493005
2 *742:A 5.86438e-05
3 *15:17 0.000551649
4 *742:A *19:17 9.5877e-05
5 *15:17 *16:15 0.000771571
6 *15:17 *20:13 0.000212442
7 *15:17 *158:8 0.000166522
8 *15:17 *159:16 0.000815003
9 *1:15 *15:17 0
10 *3:9 *15:17 3.63845e-05
11 *13:17 *15:17 6.9805e-05
12 *14:17 *15:17 9.55298e-05
*RES
1 FrameStrobe[4] *15:17 46.6957 
2 *15:17 *742:A 39.0979 
*END

*D_NET *16 0.00314517
*CONN
*P FrameStrobe[5] I
*I *743:A I *D sky130_fd_sc_hd__buf_1
*CAP
1 FrameStrobe[5] 0.000666505
2 *743:A 0
3 *16:15 0.000666505
4 *16:15 *17:19 0
5 *16:15 *121:10 1.14452e-05
6 *16:15 *158:16 8.41122e-05
7 *16:15 *159:12 3.45967e-05
8 *16:15 *159:16 0.000159897
9 *1:15 *16:15 5.94125e-05
10 *5:9 *16:15 0.00014411
11 *6:19 *16:15 6.67764e-05
12 *13:17 *16:15 0.000480242
13 *15:17 *16:15 0.000771571
*RES
1 FrameStrobe[5] *16:15 48.9329 
2 *16:15 *743:A 38 
*END

*D_NET *17 0.00312903
*CONN
*P FrameStrobe[6] I
*I *744:A I *D sky130_fd_sc_hd__buf_1
*CAP
1 FrameStrobe[6] 0.000816094
2 *744:A 0
3 *17:19 0.000816094
4 *17:19 *18:13 0
5 *17:19 *19:17 0.000308045
6 *17:19 *124:14 0.000308039
7 *17:19 *155:10 6.18311e-05
8 *17:19 *156:10 0.000184527
9 *740:A *17:19 2.02872e-05
10 *1:15 *17:19 6.87724e-05
11 *3:9 *17:19 0.00018382
12 *4:13 *17:19 0.00018382
13 *14:17 *17:19 0.000177701
14 *16:15 *17:19 0
*RES
1 FrameStrobe[6] *17:19 48.1043 
2 *17:19 *744:A 38 
*END

*D_NET *18 0.00300808
*CONN
*P FrameStrobe[7] I
*I *745:A I *D sky130_fd_sc_hd__buf_1
*CAP
1 FrameStrobe[7] 0.00103714
2 *745:A 0
3 *18:13 0.00103714
4 *18:13 *19:17 0.000167474
5 *18:13 *122:12 0.00017857
6 *18:13 *124:14 4.92512e-05
7 *18:13 *125:10 8.45309e-05
8 *18:13 *155:10 7.30835e-05
9 *18:13 *156:10 0.000166513
10 *18:13 *163:8 5.50106e-05
11 *18:13 *212:10 2.15111e-05
12 *18:13 *212:14 3.73852e-05
13 *18:13 *213:12 0
14 *2:13 *18:13 0
15 *10:17 *18:13 0
16 *11:15 *18:13 0
17 *12:17 *18:13 6.33614e-05
18 *13:17 *18:13 3.71198e-05
19 *17:19 *18:13 0
*RES
1 FrameStrobe[7] *18:13 34.6371 
2 *18:13 *745:A 23 
*END

*D_NET *19 0.0034193
*CONN
*P FrameStrobe[8] I
*I *746:A I *D sky130_fd_sc_hd__buf_1
*CAP
1 FrameStrobe[8] 0.000651751
2 *746:A 4.22596e-05
3 *19:17 0.000694011
4 *746:A *748:A 9.5877e-05
5 *746:A *162:12 6.17437e-06
6 *19:17 *859:A 0.00021263
7 *19:17 *20:13 4.21393e-05
8 *19:17 *124:14 2.18409e-05
9 *740:A *19:17 5.3304e-05
10 *742:A *19:17 9.5877e-05
11 *2:13 *19:17 0.000359193
12 *5:9 *19:17 0.00021356
13 *9:13 *19:17 9.58714e-05
14 *10:9 *746:A 2.79662e-05
15 *13:17 *19:17 0.00026599
16 *14:17 *19:17 6.53382e-05
17 *17:19 *19:17 0.000308045
18 *18:13 *19:17 0.000167474
*RES
1 FrameStrobe[8] *19:17 47.0064 
2 *19:17 *746:A 39.0979 
*END

*D_NET *20 0.00333953
*CONN
*P FrameStrobe[9] I
*I *748:A I *D sky130_fd_sc_hd__buf_1
*CAP
1 FrameStrobe[9] 0.000463436
2 *748:A 0.000339896
3 *20:13 0.000803332
4 *748:A *880:A 0.000152662
5 *748:A *162:12 8.48502e-06
6 *748:A *164:10 9.5877e-05
7 *748:A *214:8 0.00022109
8 *20:13 *157:8 0.000322358
9 *20:13 *158:8 2.49733e-05
10 *20:13 *158:16 6.70361e-05
11 *20:13 *160:8 2.35393e-05
12 *20:13 *218:14 3.70094e-05
13 *746:A *748:A 9.5877e-05
14 *2:13 *20:13 0.000205593
15 *3:9 *20:13 7.36121e-05
16 *9:27 *20:13 0.000120728
17 *10:9 *748:A 2.94414e-05
18 *15:17 *20:13 0.000212442
19 *19:17 *20:13 4.21393e-05
*RES
1 FrameStrobe[9] *20:13 41.8279 
2 *20:13 *748:A 44.8357 
*END

*D_NET *21 0.000795095
*CONN
*P FrameStrobe_O[0] O
*I *809:X O *D sky130_fd_sc_hd__buf_2
*CAP
1 FrameStrobe_O[0] 0.000397547
2 *809:X 0.000397547
3 FrameStrobe_O[0] UserCLKo 0
*RES
1 *809:X FrameStrobe_O[0] 45.685 
*END

*D_NET *22 0.000881199
*CONN
*P FrameStrobe_O[10] O
*I *810:X O *D sky130_fd_sc_hd__buf_2
*CAP
1 FrameStrobe_O[10] 0.000440599
2 *810:X 0.000440599
3 FrameStrobe_O[10] FrameStrobe_O[9] 0
*RES
1 *810:X FrameStrobe_O[10] 46.1614 
*END

*D_NET *23 0.000889291
*CONN
*P FrameStrobe_O[11] O
*I *811:X O *D sky130_fd_sc_hd__clkbuf_4
*CAP
1 FrameStrobe_O[11] 0.000444645
2 *811:X 0.000444645
*RES
1 *811:X FrameStrobe_O[11] 46.1614 
*END

*D_NET *24 0.00085365
*CONN
*P FrameStrobe_O[12] O
*I *812:X O *D sky130_fd_sc_hd__clkbuf_4
*CAP
1 FrameStrobe_O[12] 0.000426825
2 *812:X 0.000426825
*RES
1 *812:X FrameStrobe_O[12] 46.5136 
*END

*D_NET *25 0.000802231
*CONN
*P FrameStrobe_O[13] O
*I *813:X O *D sky130_fd_sc_hd__buf_2
*CAP
1 FrameStrobe_O[13] 0.000401115
2 *813:X 0.000401115
*RES
1 *813:X FrameStrobe_O[13] 45.685 
*END

*D_NET *26 0.00135962
*CONN
*P FrameStrobe_O[14] O
*I *814:X O *D sky130_fd_sc_hd__clkbuf_4
*CAP
1 FrameStrobe_O[14] 0.000542461
2 *814:X 0.000542461
3 FrameStrobe_O[14] *210:18 0.000274701
*RES
1 *814:X FrameStrobe_O[14] 48.3571 
*END

*D_NET *27 0.000862472
*CONN
*P FrameStrobe_O[15] O
*I *815:X O *D sky130_fd_sc_hd__buf_2
*CAP
1 FrameStrobe_O[15] 0.000381146
2 *815:X 0.000381146
3 FrameStrobe_O[15] *210:18 0.00010018
*RES