*SPEF "ieee 1481-1999"
*DESIGN "RAM_IO"
*DATE "11:11:11 Fri 11 11, 1111"
*VENDOR "OpenRCX"
*PROGRAM "Parallel Extraction"
*VERSION "1.0"
*DESIGN_FLOW "NAME_SCOPE LOCAL" "PIN_CAP NONE"
*DIVIDER /
*DELIMITER :
*BUS_DELIMITER []
*T_UNIT 1 NS
*C_UNIT 1 PF
*R_UNIT 1 OHM
*L_UNIT 1 HENRY

*NAME_MAP
*1 Config_accessC_bit0
*2 Config_accessC_bit1
*3 Config_accessC_bit2
*4 Config_accessC_bit3
*5 E1END[0]
*6 E1END[1]
*7 E1END[2]
*8 E1END[3]
*9 E2END[0]
*10 E2END[1]
*11 E2END[2]
*12 E2END[3]
*13 E2END[4]
*14 E2END[5]
*15 E2END[6]
*16 E2END[7]
*17 E2MID[0]
*18 E2MID[1]
*19 E2MID[2]
*20 E2MID[3]
*21 E2MID[4]
*22 E2MID[5]
*23 E2MID[6]
*24 E2MID[7]
*25 E6END[0]
*26 E6END[10]
*27 E6END[11]
*28 E6END[1]
*29 E6END[2]
*30 E6END[3]
*31 E6END[4]
*32 E6END[5]
*33 E6END[6]
*34 E6END[7]
*35 E6END[8]
*36 E6END[9]
*37 EE4END[0]
*38 EE4END[10]
*39 EE4END[11]
*40 EE4END[12]
*41 EE4END[13]
*42 EE4END[14]
*43 EE4END[15]
*44 EE4END[1]
*45 EE4END[2]
*46 EE4END[3]
*47 EE4END[4]
*48 EE4END[5]
*49 EE4END[6]
*50 EE4END[7]
*51 EE4END[8]
*52 EE4END[9]
*53 FAB2RAM_A0_O0
*54 FAB2RAM_A0_O1
*55 FAB2RAM_A0_O2
*56 FAB2RAM_A0_O3
*57 FAB2RAM_A1_O0
*58 FAB2RAM_A1_O1
*59 FAB2RAM_A1_O2
*60 FAB2RAM_A1_O3
*61 FAB2RAM_C_O0
*62 FAB2RAM_C_O1
*63 FAB2RAM_C_O2
*64 FAB2RAM_C_O3
*65 FAB2RAM_D0_O0
*66 FAB2RAM_D0_O1
*67 FAB2RAM_D0_O2
*68 FAB2RAM_D0_O3
*69 FAB2RAM_D1_O0
*70 FAB2RAM_D1_O1
*71 FAB2RAM_D1_O2
*72 FAB2RAM_D1_O3
*73 FAB2RAM_D2_O0
*74 FAB2RAM_D2_O1
*75 FAB2RAM_D2_O2
*76 FAB2RAM_D2_O3
*77 FAB2RAM_D3_O0
*78 FAB2RAM_D3_O1
*79 FAB2RAM_D3_O2
*80 FAB2RAM_D3_O3
*81 FrameData[0]
*82 FrameData[10]
*83 FrameData[11]
*84 FrameData[12]
*85 FrameData[13]
*86 FrameData[14]
*87 FrameData[15]
*88 FrameData[16]
*89 FrameData[17]
*90 FrameData[18]
*91 FrameData[19]
*92 FrameData[1]
*93 FrameData[20]
*94 FrameData[21]
*95 FrameData[22]
*96 FrameData[23]
*97 FrameData[24]
*98 FrameData[25]
*99 FrameData[26]
*100 FrameData[27]
*101 FrameData[28]
*102 FrameData[29]
*103 FrameData[2]
*104 FrameData[30]
*105 FrameData[31]
*106 FrameData[3]
*107 FrameData[4]
*108 FrameData[5]
*109 FrameData[6]
*110 FrameData[7]
*111 FrameData[8]
*112 FrameData[9]
*113 FrameData_O[0]
*114 FrameData_O[10]
*115 FrameData_O[11]
*116 FrameData_O[12]
*117 FrameData_O[13]
*118 FrameData_O[14]
*119 FrameData_O[15]
*120 FrameData_O[16]
*121 FrameData_O[17]
*122 FrameData_O[18]
*123 FrameData_O[19]
*124 FrameData_O[1]
*125 FrameData_O[20]
*126 FrameData_O[21]
*127 FrameData_O[22]
*128 FrameData_O[23]
*129 FrameData_O[24]
*130 FrameData_O[25]
*131 FrameData_O[26]
*132 FrameData_O[27]
*133 FrameData_O[28]
*134 FrameData_O[29]
*135 FrameData_O[2]
*136 FrameData_O[30]
*137 FrameData_O[31]
*138 FrameData_O[3]
*139 FrameData_O[4]
*140 FrameData_O[5]
*141 FrameData_O[6]
*142 FrameData_O[7]
*143 FrameData_O[8]
*144 FrameData_O[9]
*145 FrameStrobe[0]
*146 FrameStrobe[10]
*147 FrameStrobe[11]
*148 FrameStrobe[12]
*149 FrameStrobe[13]
*150 FrameStrobe[14]
*151 FrameStrobe[15]
*152 FrameStrobe[16]
*153 FrameStrobe[17]
*154 FrameStrobe[18]
*155 FrameStrobe[19]
*156 FrameStrobe[1]
*157 FrameStrobe[2]
*158 FrameStrobe[3]
*159 FrameStrobe[4]
*160 FrameStrobe[5]
*161 FrameStrobe[6]
*162 FrameStrobe[7]
*163 FrameStrobe[8]
*164 FrameStrobe[9]
*165 FrameStrobe_O[0]
*166 FrameStrobe_O[10]
*167 FrameStrobe_O[11]
*168 FrameStrobe_O[12]
*169 FrameStrobe_O[13]
*170 FrameStrobe_O[14]
*171 FrameStrobe_O[15]
*172 FrameStrobe_O[16]
*173 FrameStrobe_O[17]
*174 FrameStrobe_O[18]
*175 FrameStrobe_O[19]
*176 FrameStrobe_O[1]
*177 FrameStrobe_O[2]
*178 FrameStrobe_O[3]
*179 FrameStrobe_O[4]
*180 FrameStrobe_O[5]
*181 FrameStrobe_O[6]
*182 FrameStrobe_O[7]
*183 FrameStrobe_O[8]
*184 FrameStrobe_O[9]
*185 N1BEG[0]
*186 N1BEG[1]
*187 N1BEG[2]
*188 N1BEG[3]
*189 N1END[0]
*190 N1END[1]
*191 N1END[2]
*192 N1END[3]
*193 N2BEG[0]
*194 N2BEG[1]
*195 N2BEG[2]
*196 N2BEG[3]
*197 N2BEG[4]
*198 N2BEG[5]
*199 N2BEG[6]
*200 N2BEG[7]
*201 N2BEGb[0]
*202 N2BEGb[1]
*203 N2BEGb[2]
*204 N2BEGb[3]
*205 N2BEGb[4]
*206 N2BEGb[5]
*207 N2BEGb[6]
*208 N2BEGb[7]
*209 N2END[0]
*210 N2END[1]
*211 N2END[2]
*212 N2END[3]
*213 N2END[4]
*214 N2END[5]
*215 N2END[6]
*216 N2END[7]
*217 N2MID[0]
*218 N2MID[1]
*219 N2MID[2]
*220 N2MID[3]
*221 N2MID[4]
*222 N2MID[5]
*223 N2MID[6]
*224 N2MID[7]
*225 N4BEG[0]
*226 N4BEG[10]
*227 N4BEG[11]
*228 N4BEG[12]
*229 N4BEG[13]
*230 N4BEG[14]
*231 N4BEG[15]
*232 N4BEG[1]
*233 N4BEG[2]
*234 N4BEG[3]
*235 N4BEG[4]
*236 N4BEG[5]
*237 N4BEG[6]
*238 N4BEG[7]
*239 N4BEG[8]
*240 N4BEG[9]
*241 N4END[0]
*242 N4END[10]
*243 N4END[11]
*244 N4END[12]
*245 N4END[13]
*246 N4END[14]
*247 N4END[15]
*248 N4END[1]
*249 N4END[2]
*250 N4END[3]
*251 N4END[4]
*252 N4END[5]
*253 N4END[6]
*254 N4END[7]
*255 N4END[8]
*256 N4END[9]
*257 RAM2FAB_D0_I0
*258 RAM2FAB_D0_I1
*259 RAM2FAB_D0_I2
*260 RAM2FAB_D0_I3
*261 RAM2FAB_D1_I0
*262 RAM2FAB_D1_I1
*263 RAM2FAB_D1_I2
*264 RAM2FAB_D1_I3
*265 RAM2FAB_D2_I0
*266 RAM2FAB_D2_I1
*267 RAM2FAB_D2_I2
*268 RAM2FAB_D2_I3
*269 RAM2FAB_D3_I0
*270 RAM2FAB_D3_I1
*271 RAM2FAB_D3_I2
*272 RAM2FAB_D3_I3
*273 S1BEG[0]
*274 S1BEG[1]
*275 S1BEG[2]
*276 S1BEG[3]
*277 S1END[0]
*278 S1END[1]
*279 S1END[2]
*280 S1END[3]
*281 S2BEG[0]
*282 S2BEG[1]
*283 S2BEG[2]
*284 S2BEG[3]
*285 S2BEG[4]
*286 S2BEG[5]
*287 S2BEG[6]
*288 S2BEG[7]
*289 S2BEGb[0]
*290 S2BEGb[1]
*291 S2BEGb[2]
*292 S2BEGb[3]
*293 S2BEGb[4]
*294 S2BEGb[5]
*295 S2BEGb[6]
*296 S2BEGb[7]
*297 S2END[0]
*298 S2END[1]
*299 S2END[2]
*300 S2END[3]
*301 S2END[4]
*302 S2END[5]
*303 S2END[6]
*304 S2END[7]
*305 S2MID[0]
*306 S2MID[1]
*307 S2MID[2]
*308 S2MID[3]
*309 S2MID[4]
*310 S2MID[5]
*311 S2MID[6]
*312 S2MID[7]
*313 S4BEG[0]
*314 S4BEG[10]
*315 S4BEG[11]
*316 S4BEG[12]
*317 S4BEG[13]
*318 S4BEG[14]
*319 S4BEG[15]
*320 S4BEG[1]
*321 S4BEG[2]
*322 S4BEG[3]
*323 S4BEG[4]
*324 S4BEG[5]
*325 S4BEG[6]
*326 S4BEG[7]
*327 S4BEG[8]
*328 S4BEG[9]
*329 S4END[0]
*330 S4END[10]
*331 S4END[11]
*332 S4END[12]
*333 S4END[13]
*334 S4END[14]
*335 S4END[15]
*336 S4END[1]
*337 S4END[2]
*338 S4END[3]
*339 S4END[4]
*340 S4END[5]
*341 S4END[6]
*342 S4END[7]
*343 S4END[8]
*344 S4END[9]
*345 UserCLK
*346 UserCLKo
*349 W1BEG[0]
*350 W1BEG[1]
*351 W1BEG[2]
*352 W1BEG[3]
*353 W2BEG[0]
*354 W2BEG[1]
*355 W2BEG[2]
*356 W2BEG[3]
*357 W2BEG[4]
*358 W2BEG[5]
*359 W2BEG[6]
*360 W2BEG[7]
*361 W2BEGb[0]
*362 W2BEGb[1]
*363 W2BEGb[2]
*364 W2BEGb[3]
*365 W2BEGb[4]
*366 W2BEGb[5]
*367 W2BEGb[6]
*368 W2BEGb[7]
*369 W6BEG[0]
*370 W6BEG[10]
*371 W6BEG[11]
*372 W6BEG[1]
*373 W6BEG[2]
*374 W6BEG[3]
*375 W6BEG[4]
*376 W6BEG[5]
*377 W6BEG[6]
*378 W6BEG[7]
*379 W6BEG[8]
*380 W6BEG[9]
*381 WW4BEG[0]
*382 WW4BEG[10]
*383 WW4BEG[11]
*384 WW4BEG[12]
*385 WW4BEG[13]
*386 WW4BEG[14]
*387 WW4BEG[15]
*388 WW4BEG[1]
*389 WW4BEG[2]
*390 WW4BEG[3]
*391 WW4BEG[4]
*392 WW4BEG[5]
*393 WW4BEG[6]
*394 WW4BEG[7]
*395 WW4BEG[8]
*396 WW4BEG[9]
*397 Inst_Config_accessConfig_access\.ConfigBits\[0\]
*398 Inst_Config_accessConfig_access\.ConfigBits\[1\]
*399 Inst_Config_accessConfig_access\.ConfigBits\[2\]
*400 Inst_Config_accessConfig_access\.ConfigBits\[3\]
*401 Inst_FAB2RAM_A0_OutPass4_frame_config_mux\.ConfigBits\[0\]
*402 Inst_FAB2RAM_A0_OutPass4_frame_config_mux\.ConfigBits\[1\]
*403 Inst_FAB2RAM_A0_OutPass4_frame_config_mux\.ConfigBits\[2\]
*404 Inst_FAB2RAM_A0_OutPass4_frame_config_mux\.ConfigBits\[3\]
*405 Inst_FAB2RAM_A0_OutPass4_frame_config_mux\.I\[0\]
*406 Inst_FAB2RAM_A0_OutPass4_frame_config_mux\.I\[1\]
*407 Inst_FAB2RAM_A0_OutPass4_frame_config_mux\.I\[2\]
*408 Inst_FAB2RAM_A0_OutPass4_frame_config_mux\.I\[3\]
*409 Inst_FAB2RAM_A0_OutPass4_frame_config_mux\.Q\[0\]
*410 Inst_FAB2RAM_A0_OutPass4_frame_config_mux\.Q\[1\]
*411 Inst_FAB2RAM_A0_OutPass4_frame_config_mux\.Q\[2\]
*412 Inst_FAB2RAM_A0_OutPass4_frame_config_mux\.Q\[3\]
*413 Inst_FAB2RAM_A0_OutPass4_frame_config_mux\.cus_mux21_inst0\.AIN\[0\]
*414 Inst_FAB2RAM_A0_OutPass4_frame_config_mux\.cus_mux21_inst0\.AIN\[1\]
*415 Inst_FAB2RAM_A0_OutPass4_frame_config_mux\.cus_mux21_inst0\._0_
*416 Inst_FAB2RAM_A0_OutPass4_frame_config_mux\.cus_mux21_inst0\._1_
*417 Inst_FAB2RAM_A0_OutPass4_frame_config_mux\.cus_mux21_inst1\.AIN\[0\]
*418 Inst_FAB2RAM_A0_OutPass4_frame_config_mux\.cus_mux21_inst1\.AIN\[1\]
*419 Inst_FAB2RAM_A0_OutPass4_frame_config_mux\.cus_mux21_inst1\._0_
*420 Inst_FAB2RAM_A0_OutPass4_frame_config_mux\.cus_mux21_inst1\._1_
*421 Inst_FAB2RAM_A0_OutPass4_frame_config_mux\.cus_mux21_inst2\.AIN\[0\]
*422 Inst_FAB2RAM_A0_OutPass4_frame_config_mux\.cus_mux21_inst2\.AIN\[1\]
*423 Inst_FAB2RAM_A0_OutPass4_frame_config_mux\.cus_mux21_inst2\._0_
*424 Inst_FAB2RAM_A0_OutPass4_frame_config_mux\.cus_mux21_inst2\._1_
*425 Inst_FAB2RAM_A0_OutPass4_frame_config_mux\.cus_mux21_inst3\.AIN\[0\]
*426 Inst_FAB2RAM_A0_OutPass4_frame_config_mux\.cus_mux21_inst3\.AIN\[1\]
*427 Inst_FAB2RAM_A0_OutPass4_frame_config_mux\.cus_mux21_inst3\._0_
*428 Inst_FAB2RAM_A0_OutPass4_frame_config_mux\.cus_mux21_inst3\._1_
*429 Inst_FAB2RAM_A1_OutPass4_frame_config_mux\.ConfigBits\[0\]
*430 Inst_FAB2RAM_A1_OutPass4_frame_config_mux\.ConfigBits\[1\]
*431 Inst_FAB2RAM_A1_OutPass4_frame_config_mux\.ConfigBits\[2\]
*432 Inst_FAB2RAM_A1_OutPass4_frame_config_mux\.ConfigBits\[3\]
*433 Inst_FAB2RAM_A1_OutPass4_frame_config_mux\.I\[0\]
*434 Inst_FAB2RAM_A1_OutPass4_frame_config_mux\.I\[1\]
*435 Inst_FAB2RAM_A1_OutPass4_frame_config_mux\.I\[2\]
*436 Inst_FAB2RAM_A1_OutPass4_frame_config_mux\.I\[3\]
*437 Inst_FAB2RAM_A1_OutPass4_frame_config_mux\.Q\[0\]
*438 Inst_FAB2RAM_A1_OutPass4_frame_config_mux\.Q\[1\]
*439 Inst_FAB2RAM_A1_OutPass4_frame_config_mux\.Q\[2\]
*440 Inst_FAB2RAM_A1_OutPass4_frame_config_mux\.Q\[3\]
*441 Inst_FAB2RAM_A1_OutPass4_frame_config_mux\.cus_mux21_inst0\.AIN\[0\]
*442 Inst_FAB2RAM_A1_OutPass4_frame_config_mux\.cus_mux21_inst0\.AIN\[1\]
*443 Inst_FAB2RAM_A1_OutPass4_frame_config_mux\.cus_mux21_inst0\._0_
*444 Inst_FAB2RAM_A1_OutPass4_frame_config_mux\.cus_mux21_inst0\._1_
*445 Inst_FAB2RAM_A1_OutPass4_frame_config_mux\.cus_mux21_inst1\.AIN\[0\]
*446 Inst_FAB2RAM_A1_OutPass4_frame_config_mux\.cus_mux21_inst1\.AIN\[1\]
*447 Inst_FAB2RAM_A1_OutPass4_frame_config_mux\.cus_mux21_inst1\._0_
*448 Inst_FAB2RAM_A1_OutPass4_frame_config_mux\.cus_mux21_inst1\._1_
*449 Inst_FAB2RAM_A1_OutPass4_frame_config_mux\.cus_mux21_inst2\.AIN\[0\]
*450 Inst_FAB2RAM_A1_OutPass4_frame_config_mux\.cus_mux21_inst2\.AIN\[1\]
*451 Inst_FAB2RAM_A1_OutPass4_frame_config_mux\.cus_mux21_inst2\._0_
*452 Inst_FAB2RAM_A1_OutPass4_frame_config_mux\.cus_mux21_inst2\._1_
*453 Inst_FAB2RAM_A1_OutPass4_frame_config_mux\.cus_mux21_inst3\.AIN\[0\]
*454 Inst_FAB2RAM_A1_OutPass4_frame_config_mux\.cus_mux21_inst3\.AIN\[1\]
*455 Inst_FAB2RAM_A1_OutPass4_frame_config_mux\.cus_mux21_inst3\._0_
*456 Inst_FAB2RAM_A1_OutPass4_frame_config_mux\.cus_mux21_inst3\._1_
*457 Inst_FAB2RAM_C_OutPass4_frame_config_mux\.ConfigBits\[0\]
*458 Inst_FAB2RAM_C_OutPass4_frame_config_mux\.ConfigBits\[1\]
*459 Inst_FAB2RAM_C_OutPass4_frame_config_mux\.ConfigBits\[2\]
*460 Inst_FAB2RAM_C_OutPass4_frame_config_mux\.ConfigBits\[3\]
*461 Inst_FAB2RAM_C_OutPass4_frame_config_mux\.I\[0\]
*462 Inst_FAB2RAM_C_OutPass4_frame_config_mux\.I\[1\]
*463 Inst_FAB2RAM_C_OutPass4_frame_config_mux\.I\[2\]
*464 Inst_FAB2RAM_C_OutPass4_frame_config_mux\.I\[3\]
*465 Inst_FAB2RAM_C_OutPass4_frame_config_mux\.Q\[0\]
*466 Inst_FAB2RAM_C_OutPass4_frame_config_mux\.Q\[1\]
*467 Inst_FAB2RAM_C_OutPass4_frame_config_mux\.Q\[2\]
*468 Inst_FAB2RAM_C_OutPass4_frame_config_mux\.Q\[3\]
*469 Inst_FAB2RAM_C_OutPass4_frame_config_mux\.cus_mux21_inst0\.AIN\[0\]
*470 Inst_FAB2RAM_C_OutPass4_frame_config_mux\.cus_mux21_inst0\.AIN\[1\]
*471 Inst_FAB2RAM_C_OutPass4_frame_config_mux\.cus_mux21_inst0\._0_
*472 Inst_FAB2RAM_C_OutPass4_frame_config_mux\.cus_mux21_inst0\._1_
*473 Inst_FAB2RAM_C_OutPass4_frame_config_mux\.cus_mux21_inst1\.AIN\[0\]
*474 Inst_FAB2RAM_C_OutPass4_frame_config_mux\.cus_mux21_inst1\.AIN\[1\]
*475 Inst_FAB2RAM_C_OutPass4_frame_config_mux\.cus_mux21_inst1\._0_
*476 Inst_FAB2RAM_C_OutPass4_frame_config_mux\.cus_mux21_inst1\._1_
*477 Inst_FAB2RAM_C_OutPass4_frame_config_mux\.cus_mux21_inst2\.AIN\[0\]
*478 Inst_FAB2RAM_C_OutPass4_frame_config_mux\.cus_mux21_inst2\.AIN\[1\]
*479 Inst_FAB2RAM_C_OutPass4_frame_config_mux\.cus_mux21_inst2\._0_
*480 Inst_FAB2RAM_C_OutPass4_frame_config_mux\.cus_mux21_inst2\._1_
*481 Inst_FAB2RAM_C_OutPass4_frame_config_mux\.cus_mux21_inst3\.AIN\[0\]
*482 Inst_FAB2RAM_C_OutPass4_frame_config_mux\.cus_mux21_inst3\.AIN\[1\]
*483 Inst_FAB2RAM_C_OutPass4_frame_config_mux\.cus_mux21_inst3\._0_
*484 Inst_FAB2RAM_C_OutPass4_frame_config_mux\.cus_mux21_inst3\._1_
*485 Inst_FAB2RAM_D0_OutPass4_frame_config_mux\.ConfigBits\[0\]
*486 Inst_FAB2RAM_D0_OutPass4_frame_config_mux\.ConfigBits\[1\]
*487 Inst_FAB2RAM_D0_OutPass4_frame_config_mux\.ConfigBits\[2\]
*488 Inst_FAB2RAM_D0_OutPass4_frame_config_mux\.ConfigBits\[3\]
*489 Inst_FAB2RAM_D0_OutPass4_frame_config_mux\.I\[0\]
*490 Inst_FAB2RAM_D0_OutPass4_frame_config_mux\.I\[1\]
*491 Inst_FAB2RAM_D0_OutPass4_frame_config_mux\.I\[2\]
*492 Inst_FAB2RAM_D0_OutPass4_frame_config_mux\.I\[3\]
*493 Inst_FAB2RAM_D0_OutPass4_frame_config_mux\.Q\[0\]
*494 Inst_FAB2RAM_D0_OutPass4_frame_config_mux\.Q\[1\]
*495 Inst_FAB2RAM_D0_OutPass4_frame_config_mux\.Q\[2\]
*496 Inst_FAB2RAM_D0_OutPass4_frame_config_mux\.Q\[3\]
*497 Inst_FAB2RAM_D0_OutPass4_frame_config_mux\.cus_mux21_inst0\.AIN\[0\]
*498 Inst_FAB2RAM_D0_OutPass4_frame_config_mux\.cus_mux21_inst0\.AIN\[1\]
*499 Inst_FAB2RAM_D0_OutPass4_frame_config_mux\.cus_mux21_inst0\._0_
*500 Inst_FAB2RAM_D0_OutPass4_frame_config_mux\.cus_mux21_inst0\._1_
*501 Inst_FAB2RAM_D0_OutPass4_frame_config_mux\.cus_mux21_inst1\.AIN\[0\]
*502 Inst_FAB2RAM_D0_OutPass4_frame_config_mux\.cus_mux21_inst1\.AIN\[1\]
*503 Inst_FAB2RAM_D0_OutPass4_frame_config_mux\.cus_mux21_inst1\._0_
*504 Inst_FAB2RAM_D0_OutPass4_frame_config_mux\.cus_mux21_inst1\._1_
*505 Inst_FAB2RAM_D0_OutPass4_frame_config_mux\.cus_mux21_inst2\.AIN\[0\]
*506 Inst_FAB2RAM_D0_OutPass4_frame_config_mux\.cus_mux21_inst2\.AIN\[1\]
*507 Inst_FAB2RAM_D0_OutPass4_frame_config_mux\.cus_mux21_inst2\._0_
*508 Inst_FAB2RAM_D0_OutPass4_frame_config_mux\.cus_mux21_inst2\._1_
*509 Inst_FAB2RAM_D0_OutPass4_frame_config_mux\.cus_mux21_inst3\.AIN\[0\]
*510 Inst_FAB2RAM_D0_OutPass4_frame_config_mux\.cus_mux21_inst3\.AIN\[1\]
*511 Inst_FAB2RAM_D0_OutPass4_frame_config_mux\.cus_mux21_inst3\._0_
*512 Inst_FAB2RAM_D0_OutPass4_frame_config_mux\.cus_mux21_inst3\._1_
*513 Inst_FAB2RAM_D1_OutPass4_frame_config_mux\.ConfigBits\[0\]
*514 Inst_FAB2RAM_D1_OutPass4_frame_config_mux\.ConfigBits\[1\]
*515 Inst_FAB2RAM_D1_OutPass4_frame_config_mux\.ConfigBits\[2\]
*516 Inst_FAB2RAM_D1_OutPass4_frame_config_mux\.ConfigBits\[3\]
*517 Inst_FAB2RAM_D1_OutPass4_frame_config_mux\.I\[0\]
*518 Inst_FAB2RAM_D1_OutPass4_frame_config_mux\.I\[1\]
*519 Inst_FAB2RAM_D1_OutPass4_frame_config_mux\.I\[2\]
*520 Inst_FAB2RAM_D1_OutPass4_frame_config_mux\.I\[3\]
*521 Inst_FAB2RAM_D1_OutPass4_frame_config_mux\.Q\[0\]
*522 Inst_FAB2RAM_D1_OutPass4_frame_config_mux\.Q\[1\]
*523 Inst_FAB2RAM_D1_OutPass4_frame_config_mux\.Q\[2\]
*524 Inst_FAB2RAM_D1_OutPass4_frame_config_mux\.Q\[3\]
*525 Inst_FAB2RAM_D1_OutPass4_frame_config_mux\.cus_mux21_inst0\.AIN\[0\]
*526 Inst_FAB2RAM_D1_OutPass4_frame_config_mux\.cus_mux21_inst0\.AIN\[1\]
*527 Inst_FAB2RAM_D1_OutPass4_frame_config_mux\.cus_mux21_inst0\._0_
*528 Inst_FAB2RAM_D1_OutPass4_frame_config_mux\.cus_mux21_inst0\._1_
*529 Inst_FAB2RAM_D1_OutPass4_frame_config_mux\.cus_mux21_inst1\.AIN\[0\]
*530 Inst_FAB2RAM_D1_OutPass4_frame_config_mux\.cus_mux21_inst1\.AIN\[1\]
*531 Inst_FAB2RAM_D1_OutPass4_frame_config_mux\.cus_mux21_inst1\._0_
*532 Inst_FAB2RAM_D1_OutPass4_frame_config_mux\.cus_mux21_inst1\._1_
*533 Inst_FAB2RAM_D1_OutPass4_frame_config_mux\.cus_mux21_inst2\.AIN\[0\]
*534 Inst_FAB2RAM_D1_OutPass4_frame_config_mux\.cus_mux21_inst2\.AIN\[1\]
*535 Inst_FAB2RAM_D1_OutPass4_frame_config_mux\.cus_mux21_inst2\._0_
*536 Inst_FAB2RAM_D1_OutPass4_frame_config_mux\.cus_mux21_inst2\._1_
*537 Inst_FAB2RAM_D1_OutPass4_frame_config_mux\.cus_mux21_inst3\.AIN\[0\]
*538 Inst_FAB2RAM_D1_OutPass4_frame_config_mux\.cus_mux21_inst3\.AIN\[1\]
*539 Inst_FAB2RAM_D1_OutPass4_frame_config_mux\.cus_mux21_inst3\._0_
*540 Inst_FAB2RAM_D1_OutPass4_frame_config_mux\.cus_mux21_inst3\._1_
*541 Inst_FAB2RAM_D2_OutPass4_frame_config_mux\.ConfigBits\[0\]
*542 Inst_FAB2RAM_D2_OutPass4_frame_config_mux\.ConfigBits\[1\]
*543 Inst_FAB2RAM_D2_OutPass4_frame_config_mux\.ConfigBits\[2\]
*544 Inst_FAB2RAM_D2_OutPass4_frame_config_mux\.ConfigBits\[3\]
*545 Inst_FAB2RAM_D2_OutPass4_frame_config_mux\.I\[0\]
*546 Inst_FAB2RAM_D2_OutPass4_frame_config_mux\.I\[1\]
*547 Inst_FAB2RAM_D2_OutPass4_frame_config_mux\.I\[2\]
*548 Inst_FAB2RAM_D2_OutPass4_frame_config_mux\.I\[3\]
*549 Inst_FAB2RAM_D2_OutPass4_frame_config_mux\.Q\[0\]
*550 Inst_FAB2RAM_D2_OutPass4_frame_config_mux\.Q\[1\]
*551 Inst_FAB2RAM_D2_OutPass4_frame_config_mux\.Q\[2\]
*552 Inst_FAB2RAM_D2_OutPass4_frame_config_mux\.Q\[3\]
*553 Inst_FAB2RAM_D2_OutPass4_frame_config_mux\.cus_mux21_inst0\.AIN\[0\]
*554 Inst_FAB2RAM_D2_OutPass4_frame_config_mux\.cus_mux21_inst0\.AIN\[1\]
*555 Inst_FAB2RAM_D2_OutPass4_frame_config_mux\.cus_mux21_inst0\._0_
*556 Inst_FAB2RAM_D2_OutPass4_frame_config_mux\.cus_mux21_inst0\._1_
*557 Inst_FAB2RAM_D2_OutPass4_frame_config_mux\.cus_mux21_inst1\.AIN\[0\]
*558 Inst_FAB2RAM_D2_OutPass4_frame_config_mux\.cus_mux21_inst1\.AIN\[1\]
*559 Inst_FAB2RAM_D2_OutPass4_frame_config_mux\.cus_mux21_inst1\._0_
*560 Inst_FAB2RAM_D2_OutPass4_frame_config_mux\.cus_mux21_inst1\._1_
*561 Inst_FAB2RAM_D2_OutPass4_frame_config_mux\.cus_mux21_inst2\.AIN\[0\]
*562 Inst_FAB2RAM_D2_OutPass4_frame_config_mux\.cus_mux21_inst2\.AIN\[1\]
*563 Inst_FAB2RAM_D2_OutPass4_frame_config_mux\.cus_mux21_inst2\._0_
*564 Inst_FAB2RAM_D2_OutPass4_frame_config_mux\.cus_mux21_inst2\._1_
*565 Inst_FAB2RAM_D2_OutPass4_frame_config_mux\.cus_mux21_inst3\.AIN\[0\]
*566 Inst_FAB2RAM_D2_OutPass4_frame_config_mux\.cus_mux21_inst3\.AIN\[1\]
*567 Inst_FAB2RAM_D2_OutPass4_frame_config_mux\.cus_mux21_inst3\._0_
*568 Inst_FAB2RAM_D2_OutPass4_frame_config_mux\.cus_mux21_inst3\._1_
*569 Inst_FAB2RAM_D3_OutPass4_frame_config_mux\.ConfigBits\[0\]
*570 Inst_FAB2RAM_D3_OutPass4_frame_config_mux\.ConfigBits\[1\]
*571 Inst_FAB2RAM_D3_OutPass4_frame_config_mux\.ConfigBits\[2\]
*572 Inst_FAB2RAM_D3_OutPass4_frame_config_mux\.ConfigBits\[3\]
*573 Inst_FAB2RAM_D3_OutPass4_frame_config_mux\.I\[0\]
*574 Inst_FAB2RAM_D3_OutPass4_frame_config_mux\.I\[1\]
*575 Inst_FAB2RAM_D3_OutPass4_frame_config_mux\.I\[2\]
*576 Inst_FAB2RAM_D3_OutPass4_frame_config_mux\.I\[3\]
*577 Inst_FAB2RAM_D3_OutPass4_frame_config_mux\.Q\[0\]
*578 Inst_FAB2RAM_D3_OutPass4_frame_config_mux\.Q\[1\]
*579 Inst_FAB2RAM_D3_OutPass4_frame_config_mux\.Q\[2\]
*580 Inst_FAB2RAM_D3_OutPass4_frame_config_mux\.Q\[3\]
*581 Inst_FAB2RAM_D3_OutPass4_frame_config_mux\.cus_mux21_inst0\.AIN\[0\]
*582 Inst_FAB2RAM_D3_OutPass4_frame_config_mux\.cus_mux21_inst0\.AIN\[1\]
*583 Inst_FAB2RAM_D3_OutPass4_frame_config_mux\.cus_mux21_inst0\._0_
*584 Inst_FAB2RAM_D3_OutPass4_frame_config_mux\.cus_mux21_inst0\._1_
*585 Inst_FAB2RAM_D3_OutPass4_frame_config_mux\.cus_mux21_inst1\.AIN\[0\]
*586 Inst_FAB2RAM_D3_OutPass4_frame_config_mux\.cus_mux21_inst1\.AIN\[1\]
*587 Inst_FAB2RAM_D3_OutPass4_frame_config_mux\.cus_mux21_inst1\._0_
*588 Inst_FAB2RAM_D3_OutPass4_frame_config_mux\.cus_mux21_inst1\._1_
*589 Inst_FAB2RAM_D3_OutPass4_frame_config_mux\.cus_mux21_inst2\.AIN\[0\]
*590 Inst_FAB2RAM_D3_OutPass4_frame_config_mux\.cus_mux21_inst2\.AIN\[1\]
*591 Inst_FAB2RAM_D3_OutPass4_frame_config_mux\.cus_mux21_inst2\._0_
*592 Inst_FAB2RAM_D3_OutPass4_frame_config_mux\.cus_mux21_inst2\._1_
*593 Inst_FAB2RAM_D3_OutPass4_frame_config_mux\.cus_mux21_inst3\.AIN\[0\]
*594 Inst_FAB2RAM_D3_OutPass4_frame_config_mux\.cus_mux21_inst3\.AIN\[1\]
*595 Inst_FAB2RAM_D3_OutPass4_frame_config_mux\.cus_mux21_inst3\._0_
*596 Inst_FAB2RAM_D3_OutPass4_frame_config_mux\.cus_mux21_inst3\._1_
*597 Inst_RAM2FAB_D0_InPass4_frame_config_mux\.ConfigBits\[0\]
*598 Inst_RAM2FAB_D0_InPass4_frame_config_mux\.ConfigBits\[1\]
*599 Inst_RAM2FAB_D0_InPass4_frame_config_mux\.ConfigBits\[2\]
*600 Inst_RAM2FAB_D0_InPass4_frame_config_mux\.ConfigBits\[3\]
*601 Inst_RAM2FAB_D0_InPass4_frame_config_mux\.O\[0\]
*602 Inst_RAM2FAB_D0_InPass4_frame_config_mux\.O\[1\]
*603 Inst_RAM2FAB_D0_InPass4_frame_config_mux\.O\[2\]
*604 Inst_RAM2FAB_D0_InPass4_frame_config_mux\.O\[3\]
*605 Inst_RAM2FAB_D0_InPass4_frame_config_mux\.Q\[0\]
*606 Inst_RAM2FAB_D0_InPass4_frame_config_mux\.Q\[1\]
*607 Inst_RAM2FAB_D0_InPass4_frame_config_mux\.Q\[2\]
*608 Inst_RAM2FAB_D0_InPass4_frame_config_mux\.Q\[3\]
*609 Inst_RAM2FAB_D0_InPass4_frame_config_mux\.cus_mux21_inst0\.AIN\[0\]
*610 Inst_RAM2FAB_D0_InPass4_frame_config_mux\.cus_mux21_inst0\.AIN\[1\]
*611 Inst_RAM2FAB_D0_InPass4_frame_config_mux\.cus_mux21_inst0\._0_
*612 Inst_RAM2FAB_D0_InPass4_frame_config_mux\.cus_mux21_inst0\._1_
*613 Inst_RAM2FAB_D0_InPass4_frame_config_mux\.cus_mux21_inst1\.AIN\[0\]
*614 Inst_RAM2FAB_D0_InPass4_frame_config_mux\.cus_mux21_inst1\.AIN\[1\]
*615 Inst_RAM2FAB_D0_InPass4_frame_config_mux\.cus_mux21_inst1\._0_
*616 Inst_RAM2FAB_D0_InPass4_frame_config_mux\.cus_mux21_inst1\._1_
*617 Inst_RAM2FAB_D0_InPass4_frame_config_mux\.cus_mux21_inst2\.AIN\[0\]
*618 Inst_RAM2FAB_D0_InPass4_frame_config_mux\.cus_mux21_inst2\.AIN\[1\]
*619 Inst_RAM2FAB_D0_InPass4_frame_config_mux\.cus_mux21_inst2\._0_
*620 Inst_RAM2FAB_D0_InPass4_frame_config_mux\.cus_mux21_inst2\._1_
*621 Inst_RAM2FAB_D0_InPass4_frame_config_mux\.cus_mux21_inst3\.AIN\[0\]
*622 Inst_RAM2FAB_D0_InPass4_frame_config_mux\.cus_mux21_inst3\.AIN\[1\]
*623 Inst_RAM2FAB_D0_InPass4_frame_config_mux\.cus_mux21_inst3\._0_
*624 Inst_RAM2FAB_D0_InPass4_frame_config_mux\.cus_mux21_inst3\._1_
*625 Inst_RAM2FAB_D1_InPass4_frame_config_mux\.ConfigBits\[0\]
*626 Inst_RAM2FAB_D1_InPass4_frame_config_mux\.ConfigBits\[1\]
*627 Inst_RAM2FAB_D1_InPass4_frame_config_mux\.ConfigBits\[2\]
*628 Inst_RAM2FAB_D1_InPass4_frame_config_mux\.ConfigBits\[3\]
*629 Inst_RAM2FAB_D1_InPass4_frame_config_mux\.O\[0\]
*630 Inst_RAM2FAB_D1_InPass4_frame_config_mux\.O\[1\]
*631 Inst_RAM2FAB_D1_InPass4_frame_config_mux\.O\[2\]
*632 Inst_RAM2FAB_D1_InPass4_frame_config_mux\.O\[3\]
*633 Inst_RAM2FAB_D1_InPass4_frame_config_mux\.Q\[0\]
*634 Inst_RAM2FAB_D1_InPass4_frame_config_mux\.Q\[1\]
*635 Inst_RAM2FAB_D1_InPass4_frame_config_mux\.Q\[2\]
*636 Inst_RAM2FAB_D1_InPass4_frame_config_mux\.Q\[3\]
*637 Inst_RAM2FAB_D1_InPass4_frame_config_mux\.cus_mux21_inst0\.AIN\[0\]
*638 Inst_RAM2FAB_D1_InPass4_frame_config_mux\.cus_mux21_inst0\.AIN\[1\]
*639 Inst_RAM2FAB_D1_InPass4_frame_config_mux\.cus_mux21_inst0\._0_
*640 Inst_RAM2FAB_D1_InPass4_frame_config_mux\.cus_mux21_inst0\._1_
*641 Inst_RAM2FAB_D1_InPass4_frame_config_mux\.cus_mux21_inst1\.AIN\[0\]
*642 Inst_RAM2FAB_D1_InPass4_frame_config_mux\.cus_mux21_inst1\.AIN\[1\]
*643 Inst_RAM2FAB_D1_InPass4_frame_config_mux\.cus_mux21_inst1\._0_
*644 Inst_RAM2FAB_D1_InPass4_frame_config_mux\.cus_mux21_inst1\._1_
*645 Inst_RAM2FAB_D1_InPass4_frame_config_mux\.cus_mux21_inst2\.AIN\[0\]
*646 Inst_RAM2FAB_D1_InPass4_frame_config_mux\.cus_mux21_inst2\.AIN\[1\]
*647 Inst_RAM2FAB_D1_InPass4_frame_config_mux\.cus_mux21_inst2\._0_
*648 Inst_RAM2FAB_D1_InPass4_frame_config_mux\.cus_mux21_inst2\._1_
*649 Inst_RAM2FAB_D1_InPass4_frame_config_mux\.cus_mux21_inst3\.AIN\[0\]
*650 Inst_RAM2FAB_D1_InPass4_frame_config_mux\.cus_mux21_inst3\.AIN\[1\]
*651 Inst_RAM2FAB_D1_InPass4_frame_config_mux\.cus_mux21_inst3\._0_
*652 Inst_RAM2FAB_D1_InPass4_frame_config_mux\.cus_mux21_inst3\._1_
*653 Inst_RAM2FAB_D2_InPass4_frame_config_mux\.ConfigBits\[0\]
*654 Inst_RAM2FAB_D2_InPass4_frame_config_mux\.ConfigBits\[1\]
*655 Inst_RAM2FAB_D2_InPass4_frame_config_mux\.ConfigBits\[2\]
*656 Inst_RAM2FAB_D2_InPass4_frame_config_mux\.ConfigBits\[3\]
*657 Inst_RAM2FAB_D2_InPass4_frame_config_mux\.O\[0\]
*658 Inst_RAM2FAB_D2_InPass4_frame_config_mux\.O\[1\]
*659 Inst_RAM2FAB_D2_InPass4_frame_config_mux\.O\[2\]
*660 Inst_RAM2FAB_D2_InPass4_frame_config_mux\.O\[3\]
*661 Inst_RAM2FAB_D2_InPass4_frame_config_mux\.Q\[0\]
*662 Inst_RAM2FAB_D2_InPass4_frame_config_mux\.Q\[1\]
*663 Inst_RAM2FAB_D2_InPass4_frame_config_mux\.Q\[2\]
*664 Inst_RAM2FAB_D2_InPass4_frame_config_mux\.Q\[3\]
*665 Inst_RAM2FAB_D2_InPass4_frame_config_mux\.cus_mux21_inst0\.AIN\[0\]
*666 Inst_RAM2FAB_D2_InPass4_frame_config_mux\.cus_mux21_inst0\.AIN\[1\]
*667 Inst_RAM2FAB_D2_InPass4_frame_config_mux\.cus_mux21_inst0\._0_
*668 Inst_RAM2FAB_D2_InPass4_frame_config_mux\.cus_mux21_inst0\._1_
*669 Inst_RAM2FAB_D2_InPass4_frame_config_mux\.cus_mux21_inst1\.AIN\[0\]
*670 Inst_RAM2FAB_D2_InPass4_frame_config_mux\.cus_mux21_inst1\.AIN\[1\]
*671 Inst_RAM2FAB_D2_InPass4_frame_config_mux\.cus_mux21_inst1\._0_
*672 Inst_RAM2FAB_D2_InPass4_frame_config_mux\.cus_mux21_inst1\._1_
*673 Inst_RAM2FAB_D2_InPass4_frame_config_mux\.cus_mux21_inst2\.AIN\[0\]
*674 Inst_RAM2FAB_D2_InPass4_frame_config_mux\.cus_mux21_inst2\.AIN\[1\]
*675 Inst_RAM2FAB_D2_InPass4_frame_config_mux\.cus_mux21_inst2\._0_
*676 Inst_RAM2FAB_D2_InPass4_frame_config_mux\.cus_mux21_inst2\._1_
*677 Inst_RAM2FAB_D2_InPass4_frame_config_mux\.cus_mux21_inst3\.AIN\[0\]
*678 Inst_RAM2FAB_D2_InPass4_frame_config_mux\.cus_mux21_inst3\.AIN\[1\]
*679 Inst_RAM2FAB_D2_InPass4_frame_config_mux\.cus_mux21_inst3\._0_
*680 Inst_RAM2FAB_D2_InPass4_frame_config_mux\.cus_mux21_inst3\._1_
*681 Inst_RAM2FAB_D3_InPass4_frame_config_mux\.ConfigBits\[0\]
*682 Inst_RAM2FAB_D3_InPass4_frame_config_mux\.ConfigBits\[1\]
*683 Inst_RAM2FAB_D3_InPass4_frame_config_mux\.ConfigBits\[2\]
*684 Inst_RAM2FAB_D3_InPass4_frame_config_mux\.ConfigBits\[3\]
*685 Inst_RAM2FAB_D3_InPass4_frame_config_mux\.O\[0\]
*686 Inst_RAM2FAB_D3_InPass4_frame_config_mux\.O\[1\]
*687 Inst_RAM2FAB_D3_InPass4_frame_config_mux\.O\[2\]
*688 Inst_RAM2FAB_D3_InPass4_frame_config_mux\.O\[3\]
*689 Inst_RAM2FAB_D3_InPass4_frame_config_mux\.Q\[0\]
*690 Inst_RAM2FAB_D3_InPass4_frame_config_mux\.Q\[1\]
*691 Inst_RAM2FAB_D3_InPass4_frame_config_mux\.Q\[2\]
*692 Inst_RAM2FAB_D3_InPass4_frame_config_mux\.Q\[3\]
*693 Inst_RAM2FAB_D3_InPass4_frame_config_mux\.cus_mux21_inst0\.AIN\[0\]
*694 Inst_RAM2FAB_D3_InPass4_frame_config_mux\.cus_mux21_inst0\.AIN\[1\]
*695 Inst_RAM2FAB_D3_InPass4_frame_config_mux\.cus_mux21_inst0\._0_
*696 Inst_RAM2FAB_D3_InPass4_frame_config_mux\.cus_mux21_inst0\._1_
*697 Inst_RAM2FAB_D3_InPass4_frame_config_mux\.cus_mux21_inst1\.AIN\[0\]
*698 Inst_RAM2FAB_D3_InPass4_frame_config_mux\.cus_mux21_inst1\.AIN\[1\]
*699 Inst_RAM2FAB_D3_InPass4_frame_config_mux\.cus_mux21_inst1\._0_
*700 Inst_RAM2FAB_D3_InPass4_frame_config_mux\.cus_mux21_inst1\._1_
*701 Inst_RAM2FAB_D3_InPass4_frame_config_mux\.cus_mux21_inst2\.AIN\[0\]
*702 Inst_RAM2FAB_D3_InPass4_frame_config_mux\.cus_mux21_inst2\.AIN\[1\]
*703 Inst_RAM2FAB_D3_InPass4_frame_config_mux\.cus_mux21_inst2\._0_
*704 Inst_RAM2FAB_D3_InPass4_frame_config_mux\.cus_mux21_inst2\._1_
*705 Inst_RAM2FAB_D3_InPass4_frame_config_mux\.cus_mux21_inst3\.AIN\[0\]
*706 Inst_RAM2FAB_D3_InPass4_frame_config_mux\.cus_mux21_inst3\.AIN\[1\]
*707 Inst_RAM2FAB_D3_InPass4_frame_config_mux\.cus_mux21_inst3\._0_
*708 Inst_RAM2FAB_D3_InPass4_frame_config_mux\.cus_mux21_inst3\._1_
*709 Inst_RAM_IO_ConfigMem\.ConfigBits\[100\]
*710 Inst_RAM_IO_ConfigMem\.ConfigBits\[101\]
*711 Inst_RAM_IO_ConfigMem\.ConfigBits\[102\]
*712 Inst_RAM_IO_ConfigMem\.ConfigBits\[103\]
*713 Inst_RAM_IO_ConfigMem\.ConfigBits\[104\]
*714 Inst_RAM_IO_ConfigMem\.ConfigBits\[105\]
*715 Inst_RAM_IO_ConfigMem\.ConfigBits\[106\]
*716 Inst_RAM_IO_ConfigMem\.ConfigBits\[107\]
*717 Inst_RAM_IO_ConfigMem\.ConfigBits\[108\]
*718 Inst_RAM_IO_ConfigMem\.ConfigBits\[109\]
*719 Inst_RAM_IO_ConfigMem\.ConfigBits\[110\]
*720 Inst_RAM_IO_ConfigMem\.ConfigBits\[111\]
*721 Inst_RAM_IO_ConfigMem\.ConfigBits\[112\]
*722 Inst_RAM_IO_ConfigMem\.ConfigBits\[113\]
*723 Inst_RAM_IO_ConfigMem\.ConfigBits\[114\]
*724 Inst_RAM_IO_ConfigMem\.ConfigBits\[115\]
*725 Inst_RAM_IO_ConfigMem\.ConfigBits\[116\]
*726 Inst_RAM_IO_ConfigMem\.ConfigBits\[117\]
*727 Inst_RAM_IO_ConfigMem\.ConfigBits\[118\]
*728 Inst_RAM_IO_ConfigMem\.ConfigBits\[119\]
*729 Inst_RAM_IO_ConfigMem\.ConfigBits\[120\]
*730 Inst_RAM_IO_ConfigMem\.ConfigBits\[121\]
*731 Inst_RAM_IO_ConfigMem\.ConfigBits\[122\]
*732 Inst_RAM_IO_ConfigMem\.ConfigBits\[123\]
*733 Inst_RAM_IO_ConfigMem\.ConfigBits\[124\]
*734 Inst_RAM_IO_ConfigMem\.ConfigBits\[125\]
*735 Inst_RAM_IO_ConfigMem\.ConfigBits\[126\]
*736 Inst_RAM_IO_ConfigMem\.ConfigBits\[127\]
*737 Inst_RAM_IO_ConfigMem\.ConfigBits\[128\]
*738 Inst_RAM_IO_ConfigMem\.ConfigBits\[129\]
*739 Inst_RAM_IO_ConfigMem\.ConfigBits\[130\]
*740 Inst_RAM_IO_ConfigMem\.ConfigBits\[131\]
*741 Inst_RAM_IO_ConfigMem\.ConfigBits\[132\]
*742 Inst_RAM_IO_ConfigMem\.ConfigBits\[133\]
*743 Inst_RAM_IO_ConfigMem\.ConfigBits\[134\]
*744 Inst_RAM_IO_ConfigMem\.ConfigBits\[135\]
*745 Inst_RAM_IO_ConfigMem\.ConfigBits\[136\]
*746 Inst_RAM_IO_ConfigMem\.ConfigBits\[137\]
*747 Inst_RAM_IO_ConfigMem\.ConfigBits\[138\]
*748 Inst_RAM_IO_ConfigMem\.ConfigBits\[139\]
*749 Inst_RAM_IO_ConfigMem\.ConfigBits\[140\]
*750 Inst_RAM_IO_ConfigMem\.ConfigBits\[141\]
*751 Inst_RAM_IO_ConfigMem\.ConfigBits\[142\]
*752 Inst_RAM_IO_ConfigMem\.ConfigBits\[143\]
*753 Inst_RAM_IO_ConfigMem\.ConfigBits\[144\]
*754 Inst_RAM_IO_ConfigMem\.ConfigBits\[145\]
*755 Inst_RAM_IO_ConfigMem\.ConfigBits\[146\]
*756 Inst_RAM_IO_ConfigMem\.ConfigBits\[147\]
*757 Inst_RAM_IO_ConfigMem\.ConfigBits\[148\]
*758 Inst_RAM_IO_ConfigMem\.ConfigBits\[149\]
*759 Inst_RAM_IO_ConfigMem\.ConfigBits\[150\]
*760 Inst_RAM_IO_ConfigMem\.ConfigBits\[151\]
*761 Inst_RAM_IO_ConfigMem\.ConfigBits\[152\]
*762 Inst_RAM_IO_ConfigMem\.ConfigBits\[153\]
*763 Inst_RAM_IO_ConfigMem\.ConfigBits\[154\]
*764 Inst_RAM_IO_ConfigMem\.ConfigBits\[155\]
*765 Inst_RAM_IO_ConfigMem\.ConfigBits\[156\]
*766 Inst_RAM_IO_ConfigMem\.ConfigBits\[157\]
*767 Inst_RAM_IO_ConfigMem\.ConfigBits\[158\]
*768 Inst_RAM_IO_ConfigMem\.ConfigBits\[159\]
*769 Inst_RAM_IO_ConfigMem\.ConfigBits\[160\]
*770 Inst_RAM_IO_ConfigMem\.ConfigBits\[161\]
*771 Inst_RAM_IO_ConfigMem\.ConfigBits\[162\]
*772 Inst_RAM_IO_ConfigMem\.ConfigBits\[163\]