*SPEF "ieee 1481-1999"
*DESIGN "RegFile"
*DATE "11:11:11 Fri 11 11, 1111"
*VENDOR "OpenRCX"
*PROGRAM "Parallel Extraction"
*VERSION "1.0"
*DESIGN_FLOW "NAME_SCOPE LOCAL" "PIN_CAP NONE"
*DIVIDER /
*DELIMITER :
*BUS_DELIMITER []
*T_UNIT 1 NS
*C_UNIT 1 PF
*R_UNIT 1 OHM
*L_UNIT 1 HENRY

*NAME_MAP
*1 E1BEG[0]
*2 E1BEG[1]
*3 E1BEG[2]
*4 E1BEG[3]
*5 E1END[0]
*6 E1END[1]
*7 E1END[2]
*8 E1END[3]
*9 E2BEG[0]
*10 E2BEG[1]
*11 E2BEG[2]
*12 E2BEG[3]
*13 E2BEG[4]
*14 E2BEG[5]
*15 E2BEG[6]
*16 E2BEG[7]
*17 E2BEGb[0]
*18 E2BEGb[1]
*19 E2BEGb[2]
*20 E2BEGb[3]
*21 E2BEGb[4]
*22 E2BEGb[5]
*23 E2BEGb[6]
*24 E2BEGb[7]
*25 E2END[0]
*26 E2END[1]
*27 E2END[2]
*28 E2END[3]
*29 E2END[4]
*30 E2END[5]
*31 E2END[6]
*32 E2END[7]
*33 E2MID[0]
*34 E2MID[1]
*35 E2MID[2]
*36 E2MID[3]
*37 E2MID[4]
*38 E2MID[5]
*39 E2MID[6]
*40 E2MID[7]
*41 E6BEG[0]
*42 E6BEG[10]
*43 E6BEG[11]
*44 E6BEG[1]
*45 E6BEG[2]
*46 E6BEG[3]
*47 E6BEG[4]
*48 E6BEG[5]
*49 E6BEG[6]
*50 E6BEG[7]
*51 E6BEG[8]
*52 E6BEG[9]
*53 E6END[0]
*54 E6END[10]
*55 E6END[11]
*56 E6END[1]
*57 E6END[2]
*58 E6END[3]
*59 E6END[4]
*60 E6END[5]
*61 E6END[6]
*62 E6END[7]
*63 E6END[8]
*64 E6END[9]
*65 EE4BEG[0]
*66 EE4BEG[10]
*67 EE4BEG[11]
*68 EE4BEG[12]
*69 EE4BEG[13]
*70 EE4BEG[14]
*71 EE4BEG[15]
*72 EE4BEG[1]
*73 EE4BEG[2]
*74 EE4BEG[3]
*75 EE4BEG[4]
*76 EE4BEG[5]
*77 EE4BEG[6]
*78 EE4BEG[7]
*79 EE4BEG[8]
*80 EE4BEG[9]
*81 EE4END[0]
*82 EE4END[10]
*83 EE4END[11]
*84 EE4END[12]
*85 EE4END[13]
*86 EE4END[14]
*87 EE4END[15]
*88 EE4END[1]
*89 EE4END[2]
*90 EE4END[3]
*91 EE4END[4]
*92 EE4END[5]
*93 EE4END[6]
*94 EE4END[7]
*95 EE4END[8]
*96 EE4END[9]
*97 FrameData[0]
*98 FrameData[10]
*99 FrameData[11]
*100 FrameData[12]
*101 FrameData[13]
*102 FrameData[14]
*103 FrameData[15]
*104 FrameData[16]
*105 FrameData[17]
*106 FrameData[18]
*107 FrameData[19]
*108 FrameData[1]
*109 FrameData[20]
*110 FrameData[21]
*111 FrameData[22]
*112 FrameData[23]
*113 FrameData[24]
*114 FrameData[25]
*115 FrameData[26]
*116 FrameData[27]
*117 FrameData[28]
*118 FrameData[29]
*119 FrameData[2]
*120 FrameData[30]
*121 FrameData[31]
*122 FrameData[3]
*123 FrameData[4]
*124 FrameData[5]
*125 FrameData[6]
*126 FrameData[7]
*127 FrameData[8]
*128 FrameData[9]
*129 FrameData_O[0]
*130 FrameData_O[10]
*131 FrameData_O[11]
*132 FrameData_O[12]
*133 FrameData_O[13]
*134 FrameData_O[14]
*135 FrameData_O[15]
*136 FrameData_O[16]
*137 FrameData_O[17]
*138 FrameData_O[18]
*139 FrameData_O[19]
*140 FrameData_O[1]
*141 FrameData_O[20]
*142 FrameData_O[21]
*143 FrameData_O[22]
*144 FrameData_O[23]
*145 FrameData_O[24]
*146 FrameData_O[25]
*147 FrameData_O[26]
*148 FrameData_O[27]
*149 FrameData_O[28]
*150 FrameData_O[29]
*151 FrameData_O[2]
*152 FrameData_O[30]
*153 FrameData_O[31]
*154 FrameData_O[3]
*155 FrameData_O[4]
*156 FrameData_O[5]
*157 FrameData_O[6]
*158 FrameData_O[7]
*159 FrameData_O[8]
*160 FrameData_O[9]
*161 FrameStrobe[0]
*162 FrameStrobe[10]
*163 FrameStrobe[11]
*164 FrameStrobe[12]
*165 FrameStrobe[13]
*166 FrameStrobe[14]
*167 FrameStrobe[15]
*168 FrameStrobe[16]
*169 FrameStrobe[17]
*170 FrameStrobe[18]
*171 FrameStrobe[19]
*172 FrameStrobe[1]
*173 FrameStrobe[2]
*174 FrameStrobe[3]
*175 FrameStrobe[4]
*176 FrameStrobe[5]
*177 FrameStrobe[6]
*178 FrameStrobe[7]
*179 FrameStrobe[8]
*180 FrameStrobe[9]
*181 FrameStrobe_O[0]
*182 FrameStrobe_O[10]
*183 FrameStrobe_O[11]
*184 FrameStrobe_O[12]
*185 FrameStrobe_O[13]
*186 FrameStrobe_O[14]
*187 FrameStrobe_O[15]
*188 FrameStrobe_O[16]
*189 FrameStrobe_O[17]
*190 FrameStrobe_O[18]
*191 FrameStrobe_O[19]
*192 FrameStrobe_O[1]
*193 FrameStrobe_O[2]
*194 FrameStrobe_O[3]
*195 FrameStrobe_O[4]
*196 FrameStrobe_O[5]
*197 FrameStrobe_O[6]
*198 FrameStrobe_O[7]
*199 FrameStrobe_O[8]
*200 FrameStrobe_O[9]
*201 N1BEG[0]
*202 N1BEG[1]
*203 N1BEG[2]
*204 N1BEG[3]
*205 N1END[0]
*206 N1END[1]
*207 N1END[2]
*208 N1END[3]
*209 N2BEG[0]
*210 N2BEG[1]
*211 N2BEG[2]
*212 N2BEG[3]
*213 N2BEG[4]
*214 N2BEG[5]
*215 N2BEG[6]
*216 N2BEG[7]
*217 N2BEGb[0]
*218 N2BEGb[1]
*219 N2BEGb[2]
*220 N2BEGb[3]
*221 N2BEGb[4]
*222 N2BEGb[5]
*223 N2BEGb[6]
*224 N2BEGb[7]
*225 N2END[0]
*226 N2END[1]
*227 N2END[2]
*228 N2END[3]
*229 N2END[4]
*230 N2END[5]
*231 N2END[6]
*232 N2END[7]
*233 N2MID[0]
*234 N2MID[1]
*235 N2MID[2]
*236 N2MID[3]
*237 N2MID[4]
*238 N2MID[5]
*239 N2MID[6]
*240 N2MID[7]
*241 N4BEG[0]
*242 N4BEG[10]
*243 N4BEG[11]
*244 N4BEG[12]
*245 N4BEG[13]
*246 N4BEG[14]
*247 N4BEG[15]
*248 N4BEG[1]
*249 N4BEG[2]
*250 N4BEG[3]
*251 N4BEG[4]
*252 N4BEG[5]
*253 N4BEG[6]
*254 N4BEG[7]
*255 N4BEG[8]
*256 N4BEG[9]
*257 N4END[0]
*258 N4END[10]
*259 N4END[11]
*260 N4END[12]
*261 N4END[13]
*262 N4END[14]
*263 N4END[15]
*264 N4END[1]
*265 N4END[2]
*266 N4END[3]
*267 N4END[4]
*268 N4END[5]
*269 N4END[6]
*270 N4END[7]
*271 N4END[8]
*272 N4END[9]
*273 NN4BEG[0]
*274 NN4BEG[10]
*275 NN4BEG[11]
*276 NN4BEG[12]
*277 NN4BEG[13]
*278 NN4BEG[14]
*279 NN4BEG[15]
*280 NN4BEG[1]
*281 NN4BEG[2]
*282 NN4BEG[3]
*283 NN4BEG[4]
*284 NN4BEG[5]
*285 NN4BEG[6]
*286 NN4BEG[7]
*287 NN4BEG[8]
*288 NN4BEG[9]
*289 NN4END[0]
*290 NN4END[10]
*291 NN4END[11]
*292 NN4END[12]
*293 NN4END[13]
*294 NN4END[14]
*295 NN4END[15]
*296 NN4END[1]
*297 NN4END[2]
*298 NN4END[3]
*299 NN4END[4]
*300 NN4END[5]
*301 NN4END[6]
*302 NN4END[7]
*303 NN4END[8]
*304 NN4END[9]
*305 S1BEG[0]
*306 S1BEG[1]
*307 S1BEG[2]
*308 S1BEG[3]
*309 S1END[0]
*310 S1END[1]
*311 S1END[2]
*312 S1END[3]
*313 S2BEG[0]
*314 S2BEG[1]
*315 S2BEG[2]
*316 S2BEG[3]
*317 S2BEG[4]
*318 S2BEG[5]
*319 S2BEG[6]
*320 S2BEG[7]
*321 S2BEGb[0]
*322 S2BEGb[1]
*323 S2BEGb[2]
*324 S2BEGb[3]
*325 S2BEGb[4]
*326 S2BEGb[5]
*327 S2BEGb[6]
*328 S2BEGb[7]
*329 S2END[0]
*330 S2END[1]
*331 S2END[2]
*332 S2END[3]
*333 S2END[4]
*334 S2END[5]
*335 S2END[6]
*336 S2END[7]
*337 S2MID[0]
*338 S2MID[1]
*339 S2MID[2]
*340 S2MID[3]
*341 S2MID[4]
*342 S2MID[5]
*343 S2MID[6]
*344 S2MID[7]
*345 S4BEG[0]
*346 S4BEG[10]
*347 S4BEG[11]
*348 S4BEG[12]
*349 S4BEG[13]
*350 S4BEG[14]
*351 S4BEG[15]
*352 S4BEG[1]
*353 S4BEG[2]
*354 S4BEG[3]
*355 S4BEG[4]
*356 S4BEG[5]
*357 S4BEG[6]
*358 S4BEG[7]
*359 S4BEG[8]
*360 S4BEG[9]
*361 S4END[0]
*362 S4END[10]
*363 S4END[11]
*364 S4END[12]
*365 S4END[13]
*366 S4END[14]
*367 S4END[15]
*368 S4END[1]
*369 S4END[2]
*370 S4END[3]
*371 S4END[4]
*372 S4END[5]
*373 S4END[6]
*374 S4END[7]
*375 S4END[8]
*376 S4END[9]
*377 SS4BEG[0]
*378 SS4BEG[10]
*379 SS4BEG[11]
*380 SS4BEG[12]
*381 SS4BEG[13]
*382 SS4BEG[14]
*383 SS4BEG[15]
*384 SS4BEG[1]
*385 SS4BEG[2]
*386 SS4BEG[3]
*387 SS4BEG[4]
*388 SS4BEG[5]
*389 SS4BEG[6]
*390 SS4BEG[7]
*391 SS4BEG[8]
*392 SS4BEG[9]
*393 SS4END[0]
*394 SS4END[10]
*395 SS4END[11]
*396 SS4END[12]
*397 SS4END[13]
*398 SS4END[14]
*399 SS4END[15]
*400 SS4END[1]
*401 SS4END[2]
*402 SS4END[3]
*403 SS4END[4]
*404 SS4END[5]
*405 SS4END[6]
*406 SS4END[7]
*407 SS4END[8]
*408 SS4END[9]
*409 UserCLK
*410 UserCLKo
*413 W1BEG[0]
*414 W1BEG[1]
*415 W1BEG[2]
*416 W1BEG[3]
*417 W1END[0]
*418 W1END[1]
*419 W1END[2]
*420 W1END[3]
*421 W2BEG[0]
*422 W2BEG[1]
*423 W2BEG[2]
*424 W2BEG[3]
*425 W2BEG[4]
*426 W2BEG[5]
*427 W2BEG[6]
*428 W2BEG[7]
*429 W2BEGb[0]
*430 W2BEGb[1]
*431 W2BEGb[2]
*432 W2BEGb[3]
*433 W2BEGb[4]
*434 W2BEGb[5]
*435 W2BEGb[6]
*436 W2BEGb[7]
*437 W2END[0]
*438 W2END[1]
*439 W2END[2]
*440 W2END[3]
*441 W2END[4]
*442 W2END[5]
*443 W2END[6]
*444 W2END[7]
*445 W2MID[0]
*446 W2MID[1]
*447 W2MID[2]
*448 W2MID[3]
*449 W2MID[4]
*450 W2MID[5]
*451 W2MID[6]
*452 W2MID[7]
*453 W6BEG[0]
*454 W6BEG[10]
*455 W6BEG[11]
*456 W6BEG[1]
*457 W6BEG[2]
*458 W6BEG[3]
*459 W6BEG[4]
*460 W6BEG[5]
*461 W6BEG[6]
*462 W6BEG[7]
*463 W6BEG[8]
*464 W6BEG[9]
*465 W6END[0]
*466 W6END[10]
*467 W6END[11]
*468 W6END[1]
*469 W6END[2]
*470 W6END[3]
*471 W6END[4]
*472 W6END[5]
*473 W6END[6]
*474 W6END[7]
*475 W6END[8]
*476 W6END[9]
*477 WW4BEG[0]
*478 WW4BEG[10]
*479 WW4BEG[11]
*480 WW4BEG[12]
*481 WW4BEG[13]
*482 WW4BEG[14]
*483 WW4BEG[15]
*484 WW4BEG[1]
*485 WW4BEG[2]
*486 WW4BEG[3]
*487 WW4BEG[4]
*488 WW4BEG[5]
*489 WW4BEG[6]
*490 WW4BEG[7]
*491 WW4BEG[8]
*492 WW4BEG[9]
*493 WW4END[0]
*494 WW4END[10]
*495 WW4END[11]
*496 WW4END[12]
*497 WW4END[13]
*498 WW4END[14]
*499 WW4END[15]
*500 WW4END[1]
*501 WW4END[2]
*502 WW4END[3]
*503 WW4END[4]
*504 WW4END[5]
*505 WW4END[6]
*506 WW4END[7]
*507 WW4END[8]
*508 WW4END[9]
*509 AD0
*510 AD1
*511 AD2
*512 AD3
*513 A_ADR0
*514 A_ADR1
*515 A_ADR2
*516 A_ADR3
*517 A_ADR4
*518 BD0
*519 BD1
*520 BD2
*521 BD3
*522 B_ADR0
*523 B_ADR1
*524 B_ADR2
*525 B_ADR3
*526 B_ADR4
*527 ConfigBits\[0\]
*528 ConfigBits\[100\]
*529 ConfigBits\[101\]
*530 ConfigBits\[102\]
*531 ConfigBits\[103\]
*532 ConfigBits\[104\]
*533 ConfigBits\[105\]
*534 ConfigBits\[106\]
*535 ConfigBits\[107\]
*536 ConfigBits\[108\]
*537 ConfigBits\[109\]
*538 ConfigBits\[10\]
*539 ConfigBits\[110\]
*540 ConfigBits\[111\]
*541 ConfigBits\[112\]
*542 ConfigBits\[113\]
*543 ConfigBits\[114\]
*544 ConfigBits\[115\]
*545 ConfigBits\[116\]
*546 ConfigBits\[117\]
*547 ConfigBits\[118\]
*548 ConfigBits\[119\]
*549 ConfigBits\[11\]
*550 ConfigBits\[120\]
*551 ConfigBits\[121\]
*552 ConfigBits\[122\]
*553 ConfigBits\[123\]
*554 ConfigBits\[124\]
*555 ConfigBits\[125\]
*556 ConfigBits\[126\]
*557 ConfigBits\[127\]
*558 ConfigBits\[128\]
*559 ConfigBits\[129\]
*560 ConfigBits\[12\]
*561 ConfigBits\[130\]
*562 ConfigBits\[131\]
*563 ConfigBits\[132\]
*564 ConfigBits\[133\]
*565 ConfigBits\[134\]
*566 ConfigBits\[135\]
*567 ConfigBits\[136\]
*568 ConfigBits\[137\]
*569 ConfigBits\[138\]
*570 ConfigBits\[139\]
*571 ConfigBits\[13\]
*572 ConfigBits\[140\]
*573 ConfigBits\[141\]
*574 ConfigBits\[142\]
*575 ConfigBits\[143\]
*576 ConfigBits\[144\]
*577 ConfigBits\[145\]
*578 ConfigBits\[146\]
*579 ConfigBits\[147\]
*580 ConfigBits\[148\]
*581 ConfigBits\[149\]
*582 ConfigBits\[14\]
*583 ConfigBits\[150\]
*584 ConfigBits\[151\]
*585 ConfigBits\[152\]
*586 ConfigBits\[153\]
*587 ConfigBits\[154\]
*588 ConfigBits\[155\]
*589 ConfigBits\[156\]
*590 ConfigBits\[157\]
*591 ConfigBits\[158\]
*592 ConfigBits\[159\]
*593 ConfigBits\[15\]
*594 ConfigBits\[160\]
*595 ConfigBits\[161\]
*596 ConfigBits\[162\]
*597 ConfigBits\[163\]
*598 ConfigBits\[164\]
*599 ConfigBits\[165\]
*600 ConfigBits\[166\]
*601 ConfigBits\[167\]
*602 ConfigBits\[168\]
*603 ConfigBits\[169\]
*604 ConfigBits\[16\]
*605 ConfigBits\[170\]
*606 ConfigBits\[171\]
*607 ConfigBits\[172\]
*608 ConfigBits\[173\]
*609 ConfigBits\[174\]
*610 ConfigBits\[175\]
*611 ConfigBits\[176\]
*612 ConfigBits\[177\]
*613 ConfigBits\[178\]
*614 ConfigBits\[179\]
*615 ConfigBits\[17\]
*616 ConfigBits\[180\]
*617 ConfigBits\[181\]
*618 ConfigBits\[182\]
*619 ConfigBits\[183\]
*620 ConfigBits\[184\]
*621 ConfigBits\[185\]
*622 ConfigBits\[186\]
*623 ConfigBits\[187\]
*624 ConfigBits\[188\]
*625 ConfigBits\[189\]
*626 ConfigBits\[18\]
*627 ConfigBits\[190\]
*628 ConfigBits\[191\]
*629 ConfigBits\[192\]
*630 ConfigBits\[193\]
*631 ConfigBits\[194\]
*632 ConfigBits\[195\]
*633 ConfigBits\[196\]
*634 ConfigBits\[197\]
*635 ConfigBits\[198\]
*636 ConfigBits\[199\]
*637 ConfigBits\[19\]
*638 ConfigBits\[1\]
*639 ConfigBits\[200\]
*640 ConfigBits\[201\]
*641 ConfigBits\[202\]
*642 ConfigBits\[203\]
*643 ConfigBits\[204\]
*644 ConfigBits\[205\]
*645 ConfigBits\[206\]
*646 ConfigBits\[207\]
*647 ConfigBits\[208\]
*648 ConfigBits\[209\]
*649 ConfigBits\[20\]
*650 ConfigBits\[210\]
*651 ConfigBits\[211\]
*652 ConfigBits\[212\]
*653 ConfigBits\[213\]
*654 ConfigBits\[214\]
*655 ConfigBits\[215\]
*656 ConfigBits\[216\]
*657 ConfigBits\[217\]
*658 ConfigBits\[218\]
*659 ConfigBits\[219\]
*660 ConfigBits\[21\]
*661 ConfigBits\[220\]
*662 ConfigBits\[221\]
*663 ConfigBits\[222\]
*664 ConfigBits\[223\]
*665 ConfigBits\[224\]
*666 ConfigBits\[225\]
*667 ConfigBits\[226\]
*668 ConfigBits\[227\]
*669 ConfigBits\[228\]
*670 ConfigBits\[229\]
*671 ConfigBits\[22\]
*672 ConfigBits\[230\]
*673 ConfigBits\[231\]
*674 ConfigBits\[232\]
*675 ConfigBits\[233\]
*676 ConfigBits\[234\]
*677 ConfigBits\[235\]
*678 ConfigBits\[236\]
*679 ConfigBits\[237\]
*680 ConfigBits\[238\]
*681 ConfigBits\[239\]
*682 ConfigBits\[23\]
*683 ConfigBits\[240\]
*684 ConfigBits\[241\]
*685 ConfigBits\[242\]
*686 ConfigBits\[243\]
*687 ConfigBits\[244\]
*688 ConfigBits\[245\]
*689 ConfigBits\[246\]
*690 ConfigBits\[247\]
*691 ConfigBits\[248\]
*692 ConfigBits\[249\]
*693 ConfigBits\[24\]
*694 ConfigBits\[250\]
*695 ConfigBits\[251\]
*696 ConfigBits\[252\]
*697 ConfigBits\[253\]
*698 ConfigBits\[254\]
*699 ConfigBits\[255\]
*700 ConfigBits\[256\]
*701 ConfigBits\[257\]
*702 ConfigBits\[258\]
*703 ConfigBits\[259\]
*704 ConfigBits\[25\]
*705 ConfigBits\[260\]
*706 ConfigBits\[261\]
*707 ConfigBits\[262\]
*708 ConfigBits\[263\]
*709 ConfigBits\[264\]
*710 ConfigBits\[265\]
*711 ConfigBits\[266\]
*712 ConfigBits\[267\]
*713 ConfigBits\[268\]
*714 ConfigBits\[269\]
*715 ConfigBits\[26\]
*716 ConfigBits\[270\]
*717 ConfigBits\[271\]
*718 ConfigBits\[272\]
*719 ConfigBits\[273\]
*720 ConfigBits\[274\]
*721 ConfigBits\[275\]
*722 ConfigBits\[276\]
*723 ConfigBits\[277\]
*724 ConfigBits\[278\]
*725 ConfigBits\[279\]
*726 ConfigBits\[27\]
*727 ConfigBits\[280\]
*728 ConfigBits\[281\]
*729 ConfigBits\[282\]
*730 ConfigBits\[283\]
*731 ConfigBits\[284\]
*732 ConfigBits\[285\]
*733 ConfigBits\[286\]
*734 ConfigBits\[287\]
*735 ConfigBits\[288\]
*736 ConfigBits\[289\]
*737 ConfigBits\[28\]
*738 ConfigBits\[290\]
*739 ConfigBits\[291\]
*740 ConfigBits\[292\]
*741 ConfigBits\[293\]
*742 ConfigBits\[294\]
*743 ConfigBits\[295\]
*744 ConfigBits\[296\]
*745 ConfigBits\[297\]
*746 ConfigBits\[298\]
*747 ConfigBits\[299\]
*748 ConfigBits\[29\]
*749 ConfigBits\[2\]
*750 ConfigBits\[300\]
*751 ConfigBits\[301\]
*752 ConfigBits\[302\]
*753 ConfigBits\[303\]
*754 ConfigBits\[304\]
*755 ConfigBits\[305\]
*756 ConfigBits\[306\]
*757 ConfigBits\[307\]
*758 ConfigBits\[308\]
*759 ConfigBits\[309\]
*760 ConfigBits\[30\]
*761 ConfigBits\[310\]
*762 ConfigBits\[311\]
*763 ConfigBits\[312\]
*764 ConfigBits\[313\]
*765 ConfigBits\[314\]
*766 ConfigBits\[315\]
*767 ConfigBits\[316\]
*768 ConfigBits\[317\]
*769 ConfigBits\[318\]
*770 ConfigBits\[319\]
*771 ConfigBits\[31\]
*772 ConfigBits\[320\]
*773 ConfigBits\[321\]
*774 ConfigBits\[322\]
*775 ConfigBits\[323\]
*776 ConfigBits\[324\]
*777 ConfigBits\[325\]
*778 ConfigBits\[326\]
*779 ConfigBits\[327\]
*780 ConfigBits\[328\]
*781 ConfigBits\[329\]
*782 ConfigBits\[32\]
*783 ConfigBits\[330\]
*784 ConfigBits\[331\]
*785 ConfigBits\[332\]
*786 ConfigBits\[333\]
*787 ConfigBits\[334\]
*788 ConfigBits\[335\]
*789 ConfigBits\[336\]
*790 ConfigBits\[337\]
*791 ConfigBits\[338\]
*792 ConfigBits\[339\]
*793 ConfigBits\[33\]
*794 ConfigBits\[340\]
*795 ConfigBits\[341\]
*796 ConfigBits\[342\]
*797 ConfigBits\[343\]
*798 ConfigBits\[344\]
*799 ConfigBits\[345\]
*800 ConfigBits\[346\]
*801 ConfigBits\[347\]
*802 ConfigBits\[348\]
*803 ConfigBits\[349\]
*804 ConfigBits\[34\]
*805 ConfigBits\[350\]
*806 ConfigBits\[351\]
*807 ConfigBits\[352\]
*808 ConfigBits\[353\]
*809 ConfigBits\[354\]
*810 ConfigBits\[355\]
*811 ConfigBits\[356\]
*812 ConfigBits\[357\]
*813 ConfigBits\[358\]
*814 ConfigBits\[359\]
*815 ConfigBits\[35\]
*816 ConfigBits\[360\]
*817 ConfigBits\[361\]
*818 ConfigBits\[362\]
*819 ConfigBits\[363\]
*820 ConfigBits\[364\]
*821 ConfigBits\[365\]
*822 ConfigBits\[366\]
*823 ConfigBits\[367\]
*824 ConfigBits\[368\]
*825 ConfigBits\[369\]
*826 ConfigBits\[36\]
*827 ConfigBits\[370\]
*828 ConfigBits\[371\]
*829 ConfigBits\[372\]
*830 ConfigBits\[373\]
*831 ConfigBits\[374\]
*832 ConfigBits\[375\]
*833 ConfigBits\[376\]
*834 ConfigBits\[377\]
*835 ConfigBits\[378\]
*836 ConfigBits\[379\]
*837 ConfigBits\[37\]
*838 ConfigBits\[380\]
*839 ConfigBits\[381\]
*840 ConfigBits\[382\]
*841 ConfigBits\[383\]
*842 ConfigBits\[384\]
*843 ConfigBits\[385\]
*844 ConfigBits\[386\]
*845 ConfigBits\[387\]
*846 ConfigBits\[388\]
*847 ConfigBits\[389\]
*848 ConfigBits\[38\]
*849 ConfigBits\[390\]
*850 ConfigBits\[391\]
*851 ConfigBits\[392\]
*852 ConfigBits\[393\]
*853 ConfigBits\[394\]
*854 ConfigBits\[395\]
*855 ConfigBits\[396\]
*856 ConfigBits\[397\]
*857 ConfigBits\[398\]
*858 ConfigBits\[399\]
*859 ConfigBits\[39\]
*860 ConfigBits\[3\]
*861 ConfigBits\[400\]
*862 ConfigBits\[401\]
*863 ConfigBits\[402\]
*864 ConfigBits\[403\]
*865 ConfigBits\[404\]
*866 ConfigBits\[405\]
*867 ConfigBits\[406\]
*868 ConfigBits\[407\]
*869 ConfigBits\[408\]
*870 ConfigBits\[409\]
*871 ConfigBits\[40\]
*872 ConfigBits\[410\]
*873 ConfigBits\[411\]
*874 ConfigBits\[412\]
*875 ConfigBits\[413\]
*876 ConfigBits\[41\]
*877 ConfigBits\[42\]
*878 ConfigBits\[43\]
*879 ConfigBits\[44\]
*880 ConfigBits\[45\]
*881 ConfigBits\[46\]
*882 ConfigBits\[47\]
*883 ConfigBits\[48\]
*884 ConfigBits\[49\]
*885 ConfigBits\[4\]
*886 ConfigBits\[50\]
*887 ConfigBits\[51\]
*888 ConfigBits\[52\]
*889 ConfigBits\[53\]
*890 ConfigBits\[54\]
*891 ConfigBits\[55\]
*892 ConfigBits\[56\]
*893 ConfigBits\[57\]
*894 ConfigBits\[58\]
*895 ConfigBits\[59\]
*896 ConfigBits\[5\]
*897 ConfigBits\[60\]
*898 ConfigBits\[61\]
*899 ConfigBits\[62\]
*900 ConfigBits\[63\]
*901 ConfigBits\[64\]
*902 ConfigBits\[65\]
*903 ConfigBits\[66\]
*904 ConfigBits\[67\]
*905 ConfigBits\[68\]
*906 ConfigBits\[69\]
*907 ConfigBits\[6\]
*908 ConfigBits\[70\]
*909 ConfigBits\[71\]
*910 ConfigBits\[72\]
*911 ConfigBits\[73\]
*912 ConfigBits\[74\]
*913 ConfigBits\[75\]
*914 ConfigBits\[76\]
*915 ConfigBits\[77\]
*916 ConfigBits\[78\]
*917 ConfigBits\[79\]
*918 ConfigBits\[7\]
*919 ConfigBits\[80\]
*920 ConfigBits\[81\]
*921 ConfigBits\[82\]
*922 ConfigBits\[83\]
*923 ConfigBits\[84\]
*924 ConfigBits\[85\]
*925 ConfigBits\[86\]
*926 ConfigBits\[87\]
*927 ConfigBits\[88\]
*928 ConfigBits\[89\]
*929 ConfigBits\[8\]
*930 ConfigBits\[90\]
*931 ConfigBits\[91\]
*932 ConfigBits\[92\]
*933 ConfigBits\[93\]
*934 ConfigBits\[94\]
*935 ConfigBits\[95\]
*936 ConfigBits\[96\]
*937 ConfigBits\[97\]
*938 ConfigBits\[98\]
*939 ConfigBits\[99\]
*940 ConfigBits\[9\]
*941 ConfigBits_N\[0\]
*942 ConfigBits_N\[100\]
*943 ConfigBits_N\[101\]
*944 ConfigBits_N\[102\]
*945 ConfigBits_N\[103\]
*946 ConfigBits_N\[104\]
*947 ConfigBits_N\[105\]
*948 ConfigBits_N\[106\]
*949 ConfigBits_N\[107\]
*950 ConfigBits_N\[108\]
*951 ConfigBits_N\[109\]
*952 ConfigBits_N\[10\]
*953 ConfigBits_N\[110\]
*954 ConfigBits_N\[111\]
*955 ConfigBits_N\[112\]
*956 ConfigBits_N\[113\]
*957 ConfigBits_N\[114\]
*958 ConfigBits_N\[115\]
*959 ConfigBits_N\[116\]
*960 ConfigBits_N\[117\]
*961 ConfigBits_N\[118\]
*962 ConfigBits_N\[119\]
*963 ConfigBits_N\[11\]
*964 ConfigBits_N\[120\]
*965 ConfigBits_N\[121\]
*966 ConfigBits_N\[122\]
*967 ConfigBits_N\[123\]
*968 ConfigBits_N\[124\]
*969 ConfigBits_N\[125\]
*970 ConfigBits_N\[126\]
*971 ConfigBits_N\[127\]
*972 ConfigBits_N\[128\]
*973 ConfigBits_N\[129\]
*974 ConfigBits_N\[12\]
*975 ConfigBits_N\[130\]
*976 ConfigBits_N\[131\]
*977 ConfigBits_N\[132\]
*978 ConfigBits_N\[133\]
*979 ConfigBits_N\[134\]
*980 ConfigBits_N\[135\]
*981 ConfigBits_N\[136\]
*982 ConfigBits_N\[137\]
*983 ConfigBits_N\[138\]
*984 ConfigBits_N\[139\]
*985 ConfigBits_N\[13\]
*986 ConfigBits_N\[140\]
*987 ConfigBits_N\[141\]
*988 ConfigBits_N\[142\]
*989 ConfigBits_N\[143\]
*990 ConfigBits_N\[144\]
*991 ConfigBits_N\[145\]
*992 ConfigBits_N\[146\]
*993 ConfigBits_N\[147\]
*994 ConfigBits_N\[148\]
*995 ConfigBits_N\[149\]
*996 ConfigBits_N\[14\]
*997 ConfigBits_N\[150\]
*998 ConfigBits_N\[151\]
*999 ConfigBits_N\[152\]
*1000 ConfigBits_N\[153\]
*1001 ConfigBits_N\[154\]
*1002 ConfigBits_N\[155\]
*1003 ConfigBits_N\[156\]
*1004 ConfigBits_N\[157\]
*1005 ConfigBits_N\[158\]
*1006 ConfigBits_N\[159\]
*1007 ConfigBits_N\[15\]
*1008 ConfigBits_N\[160\]
*1009 ConfigBits_N\[161\]
*1010 ConfigBits_N\[162\]
*1011 ConfigBits_N\[163\]
*1012 ConfigBits_N\[164\]
*1013 ConfigBits_N\[165\]
*1014 ConfigBits_N\[166\]
*1015 ConfigBits_N\[167\]
*1016 ConfigBits_N\[168\]
*1017 ConfigBits_N\[169\]
*1018 ConfigBits_N\[16\]
*1019 ConfigBits_N\[170\]
*1020 ConfigBits_N\[171\]
*1021 ConfigBits_N\[172\]
*1022 ConfigBits_N\[173\]
*1023 ConfigBits_N\[174\]
*1024 ConfigBits_N\[175\]
*1025 ConfigBits_N\[176\]
*1026 ConfigBits_N\[177\]
*1027 ConfigBits_N\[178\]
*1028 ConfigBits_N\[179\]
*1029 ConfigBits_N\[17\]
*1030 ConfigBits_N\[180\]
*1031 ConfigBits_N\[181\]
*1032 ConfigBits_N\[182\]
*1033 ConfigBits_N\[183\]
*1034 ConfigBits_N\[184\]
*1035 ConfigBits_N\[185\]
*1036 ConfigBits_N\[186\]
*1037 ConfigBits_N\[187\]
*1038 ConfigBits_N\[188\]
*1039 ConfigBits_N\[189\]
*1040 ConfigBits_N\[18\]
*1041 ConfigBits_N\[190\]
*1042 ConfigBits_N\[191\]
*1043 ConfigBits_N\[192\]
*1044 ConfigBits_N\[193\]
*1045 ConfigBits_N\[194\]
*1046 ConfigBits_N\[195\]
*1047 ConfigBits_N\[196\]
*1048 ConfigBits_N\[197\]
*1049 ConfigBits_N\[198\]
*1050 ConfigBits_N\[199\]
*1051 ConfigBits_N\[19\]
*1052 ConfigBits_N\[1\]
*1053 ConfigBits_N\[200\]
*1054 ConfigBits_N\[201\]
*1055 ConfigBits_N\[202\]
*1056 ConfigBits_N\[203\]
*1057 ConfigBits_N\[204\]
*1058 ConfigBits_N\[205\]
*1059 ConfigBits_N\[206\]
*1060 ConfigBits_N\[207\]
*1061 ConfigBits_N\[208\]
*1062 ConfigBits_N\[209\]
*1063 ConfigBits_N\[20\]
*1064 ConfigBits_N\[210\]
*1065 ConfigBits_N\[211\]
*1066 ConfigBits_N\[212\]
*1067 ConfigBits_N\[213\]
*1068 ConfigBits_N\[214\]
*1069 ConfigBits_N\[215\]
*1070 ConfigBits_N\[216\]
*1071 ConfigBits_N\[217\]
*1072 ConfigBits_N\[218\]
*1073 ConfigBits_N\[219\]
*1074 ConfigBits_N\[21\]
*1075 ConfigBits_N\[220\]
*1076 ConfigBits_N\[221\]
*1077 ConfigBits_N\[222\]
*1078 ConfigBits_N\[223\]
*1079 ConfigBits_N\[224\]
*1080 ConfigBits_N\[225\]
*1081 ConfigBits_N\[226\]
*1082 ConfigBits_N\[227\]
*1083 ConfigBits_N\[228\]
*1084 ConfigBits_N\[229\]
*1085 ConfigBits_N\[22\]
*1086 ConfigBits_N\[230\]
*1087 ConfigBits_N\[231\]
*1088 ConfigBits_N\[232\]
*1089 ConfigBits_N\[233\]
*1090 ConfigBits_N\[234\]
*1091 ConfigBits_N\[235\]
*1092 ConfigBits_N\[236\]
*1093 ConfigBits_N\[237\]
*1094 ConfigBits_N\[238\]
*1095 ConfigBits_N\[239\]
*1096 ConfigBits_N\[23\]
*1097 ConfigBits_N\[240\]
*1098 ConfigBits_N\[241\]
*1099 ConfigBits_N\[242\]
*1100 ConfigBits_N\[243\]
*1101 ConfigBits_N\[244\]
*1102 ConfigBits_N\[245\]
*1103 ConfigBits_N\[246\]
*1104 ConfigBits_N\[247\]
*1105 ConfigBits_N\[248\]
*1106 ConfigBits_N\[249\]
*1107 ConfigBits_N\[24\]
*1108 ConfigBits_N\[250\]
*1109 ConfigBits_N\[251\]
*1110 ConfigBits_N\[252\]
*1111 ConfigBits_N\[253\]
*1112 ConfigBits_N\[254\]
*1113 ConfigBits_N\[255\]
*1114 ConfigBits_N\[256\]
*1115 ConfigBits_N\[257\]
*1116 ConfigBits_N\[258\]
*1117 ConfigBits_N\[259\]
*1118 ConfigBits_N\[25\]
*1119 ConfigBits_N\[260\]
*1120 ConfigBits_N\[261\]
*1121 ConfigBits_N\[262\]
*1122 ConfigBits_N\[263\]
*1123 ConfigBits_N\[264\]
*1124 ConfigBits_N\[265\]
*1125 ConfigBits_N\[266\]
*1126 ConfigBits_N\[267\]
*1127 ConfigBits_N\[268\]
*1128 ConfigBits_N\[269\]
*1129 ConfigBits_N\[26\]
*1130 ConfigBits_N\[270\]
*1131 ConfigBits_N\[271\]
*1132 ConfigBits_N\[272\]
*1133 ConfigBits_N\[273\]
*1134 ConfigBits_N\[274\]
*1135 ConfigBits_N\[275\]
*1136 ConfigBits_N\[276\]
*1137 ConfigBits_N\[277\]
*1138 ConfigBits_N\[278\]
*1139 ConfigBits_N\[279\]
*1140 ConfigBits_N\[27\]
*1141 ConfigBits_N\[280\]
*1142 ConfigBits_N\[281\]
*1143 ConfigBits_N\[282\]
*1144 ConfigBits_N\[283\]
*1145 ConfigBits_N\[284\]
*1146 ConfigBits_N\[285\]
*1147 ConfigBits_N\[286\]
*1148 ConfigBits_N\[287\]
*1149 ConfigBits_N\[288\]
*1150 ConfigBits_N\[289\]
*1151 ConfigBits_N\[28\]
*1152 ConfigBits_N\[290\]
*1153 ConfigBits_N\[291\]
*1154 ConfigBits_N\[292\]
*1155 ConfigBits_N\[293\]
*1156 ConfigBits_N\[294\]
*1157 ConfigBits_N\[295\]
*1158 ConfigBits_N\[296\]
*1159 ConfigBits_N\[297\]
*1160 ConfigBits_N\[298\]
*1161 ConfigBits_N\[299\]
*1162 ConfigBits_N\[29\]
*1163 ConfigBits_N\[2\]
*1164 ConfigBits_N\[300\]
*1165 ConfigBits_N\[301\]
*1166 ConfigBits_N\[302\]
*1167 ConfigBits_N\[303\]
*1168 ConfigBits_N\[304\]
*1169 ConfigBits_N\[305\]
*1170 ConfigBits_N\[306\]
*1171 ConfigBits_N\[307\]
*1172 ConfigBits_N\[308\]
*1173 ConfigBits_N\[309\]
*1174 ConfigBits_N\[30\]
*1175 ConfigBits_N\[310\]
*1176 ConfigBits_N\[311\]
*1177 ConfigBits_N\[312\]
*1178 ConfigBits_N\[313\]
*1179 ConfigBits_N\[314\]
*1180 ConfigBits_N\[315\]
*1181 ConfigBits_N\[316\]
*1182 ConfigBits_N\[317\]
*1183 ConfigBits_N\[318\]
*1184 ConfigBits_N\[319\]
*1185 ConfigBits_N\[31\]
*1186 ConfigBits_N\[320\]
*1187 ConfigBits_N\[321\]
*1188 ConfigBits_N\[322\]
*1189 ConfigBits_N\[323\]
*1190 ConfigBits_N\[324\]
*1191 ConfigBits_N\[325\]
*1192 ConfigBits_N\[326\]
*1193 ConfigBits_N\[327\]
*1194 ConfigBits_N\[328\]
*1195 ConfigBits_N\[329\]
*1196 ConfigBits_N\[32\]
*1197 ConfigBits_N\[330\]
*1198 ConfigBits_N\[331\]
*1199 ConfigBits_N\[332\]
*1200 ConfigBits_N\[333\]
*1201 ConfigBits_N\[334\]
*1202 ConfigBits_N\[335\]
*1203 ConfigBits_N\[336\]
*1204 ConfigBits_N\[337\]
*1205 ConfigBits_N\[338\]
*1206 ConfigBits_N\[339\]
*1207 ConfigBits_N\[33\]
*1208 ConfigBits_N\[340\]
*1209 ConfigBits_N\[341\]
*1210 ConfigBits_N\[342\]
*1211 ConfigBits_N\[343\]
*1212 ConfigBits_N\[344\]
*1213 ConfigBits_N\[345\]
*1214 ConfigBits_N\[346\]
*1215 ConfigBits_N\[347\]
*1216 ConfigBits_N\[348\]
*1217 ConfigBits_N\[349\]
*1218 ConfigBits_N\[34\]
*1219 ConfigBits_N\[350\]
*1220 ConfigBits_N\[351\]
*1221 ConfigBits_N\[352\]
*1222 ConfigBits_N\[353\]
*1223 ConfigBits_N\[354\]
*1224 ConfigBits_N\[355\]
*1225 ConfigBits_N\[356\]
*1226 ConfigBits_N\[357\]
*1227 ConfigBits_N\[358\]
*1228 ConfigBits_N\[359\]
*1229 ConfigBits_N\[35\]
*1230 ConfigBits_N\[360\]
*1231 ConfigBits_N\[361\]
*1232 ConfigBits_N\[362\]
*1233 ConfigBits_N\[363\]
*1234 ConfigBits_N\[364\]
*1235 ConfigBits_N\[365\]
*1236 ConfigBits_N\[366\]
*1237 ConfigBits_N\[367\]
*1238 ConfigBits_N\[368\]
*1239 ConfigBits_N\[369\]
*1240 ConfigBits_N\[36\]
*1241 ConfigBits_N\[370\]
*1242 ConfigBits_N\[371\]
*1243 ConfigBits_N\[372\]
*1244 ConfigBits_N\[373\]
*1245 ConfigBits_N\[374\]
*1246 ConfigBits_N\[375\]
*1247 ConfigBits_N\[376\]
*1248 ConfigBits_N\[377\]
*1249 ConfigBits_N\[378\]
*1250 ConfigBits_N\[379\]
*1251 ConfigBits_N\[37\]
*1252 ConfigBits_N\[380\]
*1253 ConfigBits_N\[381\]
*1254 ConfigBits_N\[382\]
*1255 ConfigBits_N\[383\]
*1256 ConfigBits_N\[384\]
*1257 ConfigBits_N\[385\]
*1258 ConfigBits_N\[386\]
*1259 ConfigBits_N\[387\]
*1260 ConfigBits_N\[388\]
*1261 ConfigBits_N\[389\]
*1262 ConfigBits_N\[38\]
*1263 ConfigBits_N\[390\]
*1264 ConfigBits_N\[391\]
*1265 ConfigBits_N\[392\]
*1266 ConfigBits_N\[393\]
*1267 ConfigBits_N\[394\]
*1268 ConfigBits_N\[395\]
*1269 ConfigBits_N\[396\]
*1270 ConfigBits_N\[397\]
*1271 ConfigBits_N\[398\]
*1272 ConfigBits_N\[399\]
*1273 ConfigBits_N\[39\]
*1274 ConfigBits_N\[3\]
*1275 ConfigBits_N\[400\]
*1276 ConfigBits_N\[401\]
*1277 ConfigBits_N\[402\]
*1278 ConfigBits_N\[403\]
*1279 ConfigBits_N\[404\]
*1280 ConfigBits_N\[405\]
*1281 ConfigBits_N\[406\]
*1282 ConfigBits_N\[407\]
*1283 ConfigBits_N\[408\]
*1284 ConfigBits_N\[409\]
*1285 ConfigBits_N\[40\]
*1286 ConfigBits_N\[410\]
*1287 ConfigBits_N\[411\]
*1288 ConfigBits_N\[412\]
*1289 ConfigBits_N\[413\]
*1290 ConfigBits_N\[41\]
*1291 ConfigBits_N\[42\]
*1292 ConfigBits_N\[43\]
*1293 ConfigBits_N\[44\]
*1294 ConfigBits_N\[45\]
*1295 ConfigBits_N\[46\]
*1296 ConfigBits_N\[47\]
*1297 ConfigBits_N\[48\]
*1298 ConfigBits_N\[49\]
*1299 ConfigBits_N\[4\]
*1300 ConfigBits_N\[50\]
*1301 ConfigBits_N\[51\]
*1302 ConfigBits_N\[52\]
*1303 ConfigBits_N\[53\]
*1304 ConfigBits_N\[54\]
*1305 ConfigBits_N\[55\]
*1306 ConfigBits_N\[56\]
*1307 ConfigBits_N\[57\]
*1308 ConfigBits_N\[58\]
*1309 ConfigBits_N\[59\]
*1310 ConfigBits_N\[5\]
*1311 ConfigBits_N\[60\]
*1312 ConfigBits_N\[61\]
*1313 ConfigBits_N\[62\]
*1314 ConfigBits_N\[63\]
*1315 ConfigBits_N\[64\]
*1316 ConfigBits_N\[65\]
*1317 ConfigBits_N\[66\]
*1318 ConfigBits_N\[67\]
*1319 ConfigBits_N\[68\]
*1320 ConfigBits_N\[69\]
*1321 ConfigBits_N\[6\]
*1322 ConfigBits_N\[70\]
*1323 ConfigBits_N\[71\]
*1324 ConfigBits_N\[72\]
*1325 ConfigBits_N\[73\]
*1326 ConfigBits_N\[74\]
*1327 ConfigBits_N\[75\]
*1328 ConfigBits_N\[76\]
*1329 ConfigBits_N\[77\]
*1330 ConfigBits_N\[78\]
*1331 ConfigBits_N\[79\]
*1332 ConfigBits_N\[7\]
*1333 ConfigBits_N\[80\]
*1334 ConfigBits_N\[81\]
*1335 ConfigBits_N\[82\]
*1336 ConfigBits_N\[83\]
*1337 ConfigBits_N\[84\]
*1338 ConfigBits_N\[85\]
*1339 ConfigBits_N\[86\]
*1340 ConfigBits_N\[87\]
*1341 ConfigBits_N\[88\]
*1342 ConfigBits_N\[89\]
*1343 ConfigBits_N\[8\]
*1344 ConfigBits_N\[90\]
*1345 ConfigBits_N\[91\]
*1346 ConfigBits_N\[92\]
*1347 ConfigBits_N\[93\]
*1348 ConfigBits_N\[94\]
*1349 ConfigBits_N\[95\]
*1350 ConfigBits_N\[96\]
*1351 ConfigBits_N\[97\]
*1352 ConfigBits_N\[98\]
*1353 ConfigBits_N\[99\]
*1354 ConfigBits_N\[9\]
*1355 D0
*1356 D1
*1357 D2
*1358 D3
*1359 E6BEG_i\[0\]
*1360 E6BEG_i\[1\]
*1361 E6BEG_i\[2\]
*1362 E6BEG_i\[3\]
*1363 E6BEG_i\[4\]
*1364 E6BEG_i\[5\]
*1365 E6BEG_i\[6\]
*1366 E6BEG_i\[7\]
*1367 E6BEG_i\[8\]
*1368 E6BEG_i\[9\]
*1369 EE4BEG_i\[0\]
*1370 EE4BEG_i\[10\]
*1371 EE4BEG_i\[11\]
*1372 EE4BEG_i\[1\]
*1373 EE4BEG_i\[2\]
*1374 EE4BEG_i\[3\]
*1375 EE4BEG_i\[4\]
*1376 EE4BEG_i\[5\]
*1377 EE4BEG_i\[6\]
*1378 EE4BEG_i\[7\]
*1379 EE4BEG_i\[8\]
*1380 EE4BEG_i\[9\]
*1381 FrameData_O_i\[0\]
*1382 FrameData_O_i\[10\]
*1383 FrameData_O_i\[11\]
*1384 FrameData_O_i\[12\]
*1385 FrameData_O_i\[13\]
*1386 FrameData_O_i\[14\]
*1387 FrameData_O_i\[15\]
*1388 FrameData_O_i\[16\]
*1389 FrameData_O_i\[17\]
*1390 FrameData_O_i\[18\]
*1391 FrameData_O_i\[19\]
*1392 FrameData_O_i\[1\]
*1393 FrameData_O_i\[20\]
*1394 FrameData_O_i\[21\]
*1395 FrameData_O_i\[22\]
*1396 FrameData_O_i\[23\]
*1397 FrameData_O_i\[24\]
*1398 FrameData_O_i\[25\]
*1399 FrameData_O_i\[26\]
*1400 FrameData_O_i\[27\]
*1401 FrameData_O_i\[28\]
*1402 FrameData_O_i\[29\]
*1403 FrameData_O_i\[2\]
*1404 FrameData_O_i\[30\]
*1405 FrameData_O_i\[31\]
*1406 FrameData_O_i\[3\]
*1407 FrameData_O_i\[4\]
*1408 FrameData_O_i\[5\]
*1409 FrameData_O_i\[6\]
*1410 FrameData_O_i\[7\]
*1411 FrameData_O_i\[8\]
*1412 FrameData_O_i\[9\]
*1413 FrameStrobe_O_i\[0\]
*1414 FrameStrobe_O_i\[10\]
*1415 FrameStrobe_O_i\[11\]
*1416 FrameStrobe_O_i\[12\]
*1417 FrameStrobe_O_i\[13\]
*1418 FrameStrobe_O_i\[14\]
*1419 FrameStrobe_O_i\[15\]
*1420 FrameStrobe_O_i\[16\]
*1421 FrameStrobe_O_i\[17\]
*1422 FrameStrobe_O_i\[18\]
*1423 FrameStrobe_O_i\[19\]
*1424 FrameStrobe_O_i\[1\]