*SPEF "ieee 1481-1999"
*DESIGN "S_term_DSP"
*DATE "11:11:11 Fri 11 11, 1111"
*VENDOR "OpenRCX"
*PROGRAM "Parallel Extraction"
*VERSION "1.0"
*DESIGN_FLOW "NAME_SCOPE LOCAL" "PIN_CAP NONE"
*DIVIDER /
*DELIMITER :
*BUS_DELIMITER []
*T_UNIT 1 NS
*C_UNIT 1 PF
*R_UNIT 1 OHM
*L_UNIT 1 HENRY

*NAME_MAP
*1 FrameStrobe[0]
*2 FrameStrobe[10]
*3 FrameStrobe[11]
*4 FrameStrobe[12]
*5 FrameStrobe[13]
*6 FrameStrobe[14]
*7 FrameStrobe[15]
*8 FrameStrobe[16]
*9 FrameStrobe[17]
*10 FrameStrobe[18]
*11 FrameStrobe[19]
*12 FrameStrobe[1]
*13 FrameStrobe[2]
*14 FrameStrobe[3]
*15 FrameStrobe[4]
*16 FrameStrobe[5]
*17 FrameStrobe[6]
*18 FrameStrobe[7]
*19 FrameStrobe[8]
*20 FrameStrobe[9]
*21 FrameStrobe_O[0]
*22 FrameStrobe_O[10]
*23 FrameStrobe_O[11]
*24 FrameStrobe_O[12]
*25 FrameStrobe_O[13]
*26 FrameStrobe_O[14]
*27 FrameStrobe_O[15]
*28 FrameStrobe_O[16]
*29 FrameStrobe_O[17]
*30 FrameStrobe_O[18]
*31 FrameStrobe_O[19]
*32 FrameStrobe_O[1]
*33 FrameStrobe_O[2]
*34 FrameStrobe_O[3]
*35 FrameStrobe_O[4]
*36 FrameStrobe_O[5]
*37 FrameStrobe_O[6]
*38 FrameStrobe_O[7]
*39 FrameStrobe_O[8]
*40 FrameStrobe_O[9]
*41 N1BEG[0]
*42 N1BEG[1]
*43 N1BEG[2]
*44 N1BEG[3]
*45 N2BEG[0]
*46 N2BEG[1]
*47 N2BEG[2]
*48 N2BEG[3]
*49 N2BEG[4]
*50 N2BEG[5]
*51 N2BEG[6]
*52 N2BEG[7]
*53 N2BEGb[0]
*54 N2BEGb[1]
*55 N2BEGb[2]
*56 N2BEGb[3]
*57 N2BEGb[4]
*58 N2BEGb[5]
*59 N2BEGb[6]
*60 N2BEGb[7]
*61 N4BEG[0]
*62 N4BEG[10]
*63 N4BEG[11]
*64 N4BEG[12]
*65 N4BEG[13]
*66 N4BEG[14]
*67 N4BEG[15]
*68 N4BEG[1]
*69 N4BEG[2]
*70 N4BEG[3]
*71 N4BEG[4]
*72 N4BEG[5]
*73 N4BEG[6]
*74 N4BEG[7]
*75 N4BEG[8]
*76 N4BEG[9]
*77 NN4BEG[0]
*78 NN4BEG[10]
*79 NN4BEG[11]
*80 NN4BEG[12]
*81 NN4BEG[13]
*82 NN4BEG[14]
*83 NN4BEG[15]
*84 NN4BEG[1]
*85 NN4BEG[2]
*86 NN4BEG[3]
*87 NN4BEG[4]
*88 NN4BEG[5]
*89 NN4BEG[6]
*90 NN4BEG[7]
*91 NN4BEG[8]
*92 NN4BEG[9]
*93 S1END[0]
*94 S1END[1]
*95 S1END[2]
*96 S1END[3]
*97 S2END[0]
*98 S2END[1]
*99 S2END[2]
*100 S2END[3]
*101 S2END[4]
*102 S2END[5]
*103 S2END[6]
*104 S2END[7]
*105 S2MID[0]
*106 S2MID[1]
*107 S2MID[2]
*108 S2MID[3]
*109 S2MID[4]
*110 S2MID[5]
*111 S2MID[6]
*112 S2MID[7]
*113 S4END[0]
*114 S4END[10]
*115 S4END[11]
*116 S4END[12]
*117 S4END[13]
*118 S4END[14]
*119 S4END[15]
*120 S4END[1]
*121 S4END[2]
*122 S4END[3]
*123 S4END[4]
*124 S4END[5]
*125 S4END[6]
*126 S4END[7]
*127 S4END[8]
*128 S4END[9]
*129 SS4END[0]
*130 SS4END[10]
*131 SS4END[11]
*132 SS4END[12]
*133 SS4END[13]
*134 SS4END[14]
*135 SS4END[15]
*136 SS4END[1]
*137 SS4END[2]
*138 SS4END[3]
*139 SS4END[4]
*140 SS4END[5]
*141 SS4END[6]
*142 SS4END[7]
*143 SS4END[8]
*144 SS4END[9]
*145 UserCLK
*146 UserCLKo
*149 FrameStrobe_O_i\[0\]
*150 FrameStrobe_O_i\[10\]
*151 FrameStrobe_O_i\[11\]
*152 FrameStrobe_O_i\[12\]
*153 FrameStrobe_O_i\[13\]
*154 FrameStrobe_O_i\[14\]
*155 FrameStrobe_O_i\[15\]
*156 FrameStrobe_O_i\[16\]
*157 FrameStrobe_O_i\[17\]
*158 FrameStrobe_O_i\[18\]
*159 FrameStrobe_O_i\[19\]
*160 FrameStrobe_O_i\[1\]
*161 FrameStrobe_O_i\[2\]
*162 FrameStrobe_O_i\[3\]
*163 FrameStrobe_O_i\[4\]
*164 FrameStrobe_O_i\[5\]
*165 FrameStrobe_O_i\[6\]
*166 FrameStrobe_O_i\[7\]
*167 FrameStrobe_O_i\[8\]
*168 FrameStrobe_O_i\[9\]
*169 net1
*170 net10
*171 net100
*172 net101
*173 net102
*174 net103
*175 net104
*176 net105
*177 net106
*178 net107
*179 net108
*180 net109
*181 net11
*182 net110
*183 net111
*184 net112
*185 net113
*186 net114
*187 net115
*188 net116
*189 net117
*190 net118
*191 net119
*192 net12
*193 net120
*194 net121
*195 net122
*196 net123
*197 net124
*198 net125
*199 net126
*200 net127
*201 net128
*202 net129
*203 net13
*204 net130
*205 net131
*206 net132
*207 net133
*208 net134
*209 net135
*210 net136
*211 net137
*212 net138
*213 net139
*214 net14
*215 net140
*216 net141
*217 net142
*218 net143
*219 net144
*220 net145
*221 net146
*222 net15
*223 net16
*224 net17
*225 net18
*226 net19
*227 net2
*228 net20
*229 net21
*230 net22
*231 net23
*232 net24
*233 net25
*234 net26
*235 net27
*236 net28
*237 net29
*238 net3
*239 net30
*240 net31
*241 net32
*242 net33
*243 net34
*244 net35
*245 net36
*246 net37
*247 net38
*248 net39
*249 net4
*250 net40
*251 net41
*252 net42
*253 net43
*254 net44
*255 net45
*256 net46
*257 net47
*258 net48
*259 net49
*260 net5
*261 net50
*262 net51
*263 net52
*264 net53
*265 net54
*266 net55
*267 net56
*268 net57
*269 net58
*270 net59
*271 net6
*272 net60
*273 net61
*274 net62
*275 net63
*276 net64
*277 net65
*278 net66
*279 net67
*280 net68
*281 net69
*282 net7
*283 net70
*284 net71
*285 net72
*286 net73
*287 net74
*288 net75
*289 net76
*290 net77
*291 net78
*292 net79
*293 net8
*294 net80
*295 net81
*296 net82
*297 net83
*298 net84
*299 net85
*300 net86
*301 net87
*302 net88
*303 net89
*304 net9
*305 net90
*306 net91
*307 net92
*308 net93
*309 net94
*310 net95
*311 net96
*312 net97
*313 net98
*314 net99
*315 FILLER_0_0_108
*316 FILLER_0_0_113
*317 FILLER_0_0_119
*318 FILLER_0_0_131
*319 FILLER_0_0_139
*320 FILLER_0_0_144
*321 FILLER_0_0_156
*322 FILLER_0_0_165
*323 FILLER_0_0_169
*324 FILLER_0_0_18
*325 FILLER_0_0_181
*326 FILLER_0_0_188
*327 FILLER_0_0_197
*328 FILLER_0_0_205
*329 FILLER_0_0_211
*330 FILLER_0_0_223
*331 FILLER_0_0_225
*332 FILLER_0_0_234
*333 FILLER_0_0_246
*334 FILLER_0_0_253
*335 FILLER_0_0_257
*336 FILLER_0_0_269
*337 FILLER_0_0_27
*338 FILLER_0_0_281
*339 FILLER_0_0_29
*340 FILLER_0_0_293
*341 FILLER_0_0_299
*342 FILLER_0_0_303
*343 FILLER_0_0_307
*344 FILLER_0_0_309
*345 FILLER_0_0_321
*346 FILLER_0_0_326
*347 FILLER_0_0_334
*348 FILLER_0_0_337
*349 FILLER_0_0_345
*350 FILLER_0_0_349
*351 FILLER_0_0_361
*352 FILLER_0_0_365
*353 FILLER_0_0_372
*354 FILLER_0_0_384
*355 FILLER_0_0_396
*356 FILLER_0_0_408
*357 FILLER_0_0_41
*358 FILLER_0_0_414
*359 FILLER_0_0_418
*360 FILLER_0_0_421
*361 FILLER_0_0_433
*362 FILLER_0_0_437
*363 FILLER_0_0_441
*364 FILLER_0_0_447
*365 FILLER_0_0_449
*366 FILLER_0_0_50
*367 FILLER_0_0_57
*368 FILLER_0_0_6
*369 FILLER_0_0_69
*370 FILLER_0_0_73
*371 FILLER_0_0_81
*372 FILLER_0_0_85
*373 FILLER_0_0_96
*374 FILLER_0_10_109
*375 FILLER_0_10_121
*376 FILLER_0_10_133
*377 FILLER_0_10_139
*378 FILLER_0_10_141
*379 FILLER_0_10_15
*380 FILLER_0_10_153
*381 FILLER_0_10_165
*382 FILLER_0_10_177
*383 FILLER_0_10_189
*384 FILLER_0_10_195
*385 FILLER_0_10_197
*386 FILLER_0_10_207
*387 FILLER_0_10_219
*388 FILLER_0_10_231
*389 FILLER_0_10_243
*390 FILLER_0_10_251
*391 FILLER_0_10_253
*392 FILLER_0_10_265
*393 FILLER_0_10_27
*394 FILLER_0_10_277
*395 FILLER_0_10_289
*396 FILLER_0_10_29
*397 FILLER_0_10_3
*398 FILLER_0_10_301
*399 FILLER_0_10_307
*400 FILLER_0_10_309
*401 FILLER_0_10_321
*402 FILLER_0_10_333
*403 FILLER_0_10_345
*404 FILLER_0_10_357
*405 FILLER_0_10_363
*406 FILLER_0_10_365
*407 FILLER_0_10_377
*408 FILLER_0_10_389
*409 FILLER_0_10_401
*410 FILLER_0_10_41
*411 FILLER_0_10_413
*412 FILLER_0_10_419
*413 FILLER_0_10_421
*414 FILLER_0_10_433
*415 FILLER_0_10_445
*416 FILLER_0_10_457
*417 FILLER_0_10_53
*418 FILLER_0_10_65
*419 FILLER_0_10_77
*420 FILLER_0_10_83
*421 FILLER_0_10_85
*422 FILLER_0_10_97
*423 FILLER_0_11_108
*424 FILLER_0_11_113
*425 FILLER_0_11_125
*426 FILLER_0_11_137
*427 FILLER_0_11_143
*428 FILLER_0_11_148
*429 FILLER_0_11_15
*430 FILLER_0_11_160
*431 FILLER_0_11_169
*432 FILLER_0_11_189
*433 FILLER_0_11_204
*434 FILLER_0_11_211
*435 FILLER_0_11_228
*436 FILLER_0_11_232
*437 FILLER_0_11_236
*438 FILLER_0_11_248
*439 FILLER_0_11_256
*440 FILLER_0_11_260
*441 FILLER_0_11_27
*442 FILLER_0_11_275
*443 FILLER_0_11_279
*444 FILLER_0_11_281
*445 FILLER_0_11_293
*446 FILLER_0_11_3
*447 FILLER_0_11_305
*448 FILLER_0_11_317
*449 FILLER_0_11_329
*450 FILLER_0_11_335
*451 FILLER_0_11_337
*452 FILLER_0_11_349
*453 FILLER_0_11_361
*454 FILLER_0_11_373
*455 FILLER_0_11_385
*456 FILLER_0_11_39
*457 FILLER_0_11_391
*458 FILLER_0_11_393
*459 FILLER_0_11_405
*460 FILLER_0_11_417
*461 FILLER_0_11_429
*462 FILLER_0_11_441
*463 FILLER_0_11_447
*464 FILLER_0_11_449
*465 FILLER_0_11_457
*466 FILLER_0_11_51
*467 FILLER_0_11_55
*468 FILLER_0_11_57
*469 FILLER_0_11_63
*470 FILLER_0_11_68
*471 FILLER_0_11_84
*472 FILLER_0_11_96
*473 FILLER_0_12_106
*474 FILLER_0_12_121
*475 FILLER_0_12_130
*476 FILLER_0_12_139
*477 FILLER_0_12_141
*478 FILLER_0_12_15
*479 FILLER_0_12_154
*480 FILLER_0_12_178
*481 FILLER_0_12_192
*482 FILLER_0_12_251
*483 FILLER_0_12_27
*484 FILLER_0_12_29
*485 FILLER_0_12_292
*486 FILLER_0_12_3
*487 FILLER_0_12_304
*488 FILLER_0_12_309
*489 FILLER_0_12_321
*490 FILLER_0_12_333
*491 FILLER_0_12_345
*492 FILLER_0_12_354
*493 FILLER_0_12_362
*494 FILLER_0_12_365
*495 FILLER_0_12_373
*496 FILLER_0_12_41
*497 FILLER_0_12_417
*498 FILLER_0_12_433
*499 FILLER_0_12_445
*500 FILLER_0_12_457
*501 FILLER_0_12_49
*502 FILLER_0_12_70
*503 FILLER_0_12_85
*504 FILLER_0_12_94
*505 FILLER_0_13_113
*506 FILLER_0_13_124
*507 FILLER_0_13_141
*508 FILLER_0_13_15
*509 FILLER_0_13_156
*510 FILLER_0_13_169
*511 FILLER_0_13_201
*512 FILLER_0_13_223
*513 FILLER_0_13_27
*514 FILLER_0_13_29
*515 FILLER_0_13_3
*516 FILLER_0_13_35
*517 FILLER_0_13_355
*518 FILLER_0_13_389
*519 FILLER_0_13_417
*520 FILLER_0_13_439
*521 FILLER_0_13_447
*522 FILLER_0_13_449
*523 FILLER_0_13_457
*524 FILLER_0_13_57
*525 FILLER_0_13_85
*526 FILLER_0_13_96
*527 FILLER_0_1_105
*528 FILLER_0_1_111
*529 FILLER_0_1_113
*530 FILLER_0_1_125
*531 FILLER_0_1_137
*532 FILLER_0_1_149
*533 FILLER_0_1_15
*534 FILLER_0_1_161
*535 FILLER_0_1_167
*536 FILLER_0_1_169
*537 FILLER_0_1_181
*538 FILLER_0_1_193
*539 FILLER_0_1_205
*540 FILLER_0_1_217
*541 FILLER_0_1_223
*542 FILLER_0_1_225
*543 FILLER_0_1_237
*544 FILLER_0_1_249
*545 FILLER_0_1_261
*546 FILLER_0_1_27
*547 FILLER_0_1_273
*548 FILLER_0_1_279
*549 FILLER_0_1_281
*550 FILLER_0_1_293
*551 FILLER_0_1_3
*552 FILLER_0_1_305
*553 FILLER_0_1_317
*554 FILLER_0_1_329
*555 FILLER_0_1_335
*556 FILLER_0_1_337
*557 FILLER_0_1_349
*558 FILLER_0_1_361
*559 FILLER_0_1_373
*560 FILLER_0_1_385
*561 FILLER_0_1_39
*562 FILLER_0_1_391
*563 FILLER_0_1_393
*564 FILLER_0_1_405
*565 FILLER_0_1_409
*566 FILLER_0_1_413
*567 FILLER_0_1_425
*568 FILLER_0_1_437
*569 FILLER_0_1_445
*570 FILLER_0_1_449
*571 FILLER_0_1_457
*572 FILLER_0_1_51
*573 FILLER_0_1_55
*574 FILLER_0_1_57
*575 FILLER_0_1_69
*576 FILLER_0_1_81
*577 FILLER_0_1_93
*578 FILLER_0_2_109
*579 FILLER_0_2_121
*580 FILLER_0_2_133
*581 FILLER_0_2_139
*582 FILLER_0_2_141
*583 FILLER_0_2_15
*584 FILLER_0_2_153
*585 FILLER_0_2_165
*586 FILLER_0_2_177
*587 FILLER_0_2_189
*588 FILLER_0_2_195
*589 FILLER_0_2_197
*590 FILLER_0_2_209
*591 FILLER_0_2_221
*592 FILLER_0_2_225
*593 FILLER_0_2_229
*594 FILLER_0_2_241
*595 FILLER_0_2_249
*596 FILLER_0_2_253
*597 FILLER_0_2_265
*598 FILLER_0_2_27
*599 FILLER_0_2_277
*600 FILLER_0_2_289
*601 FILLER_0_2_29
*602 FILLER_0_2_3
*603 FILLER_0_2_301
*604 FILLER_0_2_307
*605 FILLER_0_2_309
*606 FILLER_0_2_321
*607 FILLER_0_2_333
*608 FILLER_0_2_345
*609 FILLER_0_2_357
*610 FILLER_0_2_363
*611 FILLER_0_2_365
*612 FILLER_0_2_377
*613 FILLER_0_2_389
*614 FILLER_0_2_401
*615 FILLER_0_2_409
*616 FILLER_0_2_41
*617 FILLER_0_2_415
*618 FILLER_0_2_419
*619 FILLER_0_2_421
*620 FILLER_0_2_428
*621 FILLER_0_2_440
*622 FILLER_0_2_452
*623 FILLER_0_2_53
*624 FILLER_0_2_65
*625 FILLER_0_2_77
*626 FILLER_0_2_83
*627 FILLER_0_2_85
*628 FILLER_0_2_97
*629 FILLER_0_3_105
*630 FILLER_0_3_111
*631 FILLER_0_3_113
*632 FILLER_0_3_125
*633 FILLER_0_3_137
*634 FILLER_0_3_149
*635 FILLER_0_3_15
*636 FILLER_0_3_161
*637 FILLER_0_3_167
*638 FILLER_0_3_169
*639 FILLER_0_3_181
*640 FILLER_0_3_189
*641 FILLER_0_3_193
*642 FILLER_0_3_205
*643 FILLER_0_3_223
*644 FILLER_0_3_225
*645 FILLER_0_3_233
*646 FILLER_0_3_237
*647 FILLER_0_3_249
*648 FILLER_0_3_261
*649 FILLER_0_3_27
*650 FILLER_0_3_273
*651 FILLER_0_3_279
*652 FILLER_0_3_281
*653 FILLER_0_3_293
*654 FILLER_0_3_3
*655 FILLER_0_3_308
*656 FILLER_0_3_320
*657 FILLER_0_3_332
*658 FILLER_0_3_337
*659 FILLER_0_3_349
*660 FILLER_0_3_361
*661 FILLER_0_3_373
*662 FILLER_0_3_382
*663 FILLER_0_3_39
*664 FILLER_0_3_390
*665 FILLER_0_3_393
*666 FILLER_0_3_405
*667 FILLER_0_3_417
*668 FILLER_0_3_423
*669 FILLER_0_3_435
*670 FILLER_0_3_447
*671 FILLER_0_3_449
*672 FILLER_0_3_457
*673 FILLER_0_3_51
*674 FILLER_0_3_55
*675 FILLER_0_3_57
*676 FILLER_0_3_69
*677 FILLER_0_3_81
*678 FILLER_0_3_93
*679 FILLER_0_4_109
*680 FILLER_0_4_121
*681 FILLER_0_4_133
*682 FILLER_0_4_139
*683 FILLER_0_4_141
*684 FILLER_0_4_15
*685 FILLER_0_4_153
*686 FILLER_0_4_165
*687 FILLER_0_4_177
*688 FILLER_0_4_189
*689 FILLER_0_4_195
*690 FILLER_0_4_197
*691 FILLER_0_4_202
*692 FILLER_0_4_214
*693 FILLER_0_4_235
*694 FILLER_0_4_239
*695 FILLER_0_4_251
*696 FILLER_0_4_253
*697 FILLER_0_4_265
*698 FILLER_0_4_27
*699 FILLER_0_4_277
*700 FILLER_0_4_289
*701 FILLER_0_4_29
*702 FILLER_0_4_3
*703 FILLER_0_4_301
*704 FILLER_0_4_307
*705 FILLER_0_4_309
*706 FILLER_0_4_313
*707 FILLER_0_4_317
*708 FILLER_0_4_329
*709 FILLER_0_4_341
*710 FILLER_0_4_353
*711 FILLER_0_4_361
*712 FILLER_0_4_365
*713 FILLER_0_4_377
*714 FILLER_0_4_389
*715 FILLER_0_4_394
*716 FILLER_0_4_406
*717 FILLER_0_4_41
*718 FILLER_0_4_418
*719 FILLER_0_4_421
*720 FILLER_0_4_427
*721 FILLER_0_4_431
*722 FILLER_0_4_443
*723 FILLER_0_4_455
*724 FILLER_0_4_53
*725 FILLER_0_4_65
*726 FILLER_0_4_77
*727 FILLER_0_4_83
*728 FILLER_0_4_85
*729 FILLER_0_4_97
*730 FILLER_0_5_105
*731 FILLER_0_5_111
*732 FILLER_0_5_113
*733 FILLER_0_5_125
*734 FILLER_0_5_137
*735 FILLER_0_5_149
*736 FILLER_0_5_15
*737 FILLER_0_5_161
*738 FILLER_0_5_167
*739 FILLER_0_5_169
*740 FILLER_0_5_181
*741 FILLER_0_5_193
*742 FILLER_0_5_205
*743 FILLER_0_5_216
*744 FILLER_0_5_237
*745 FILLER_0_5_249
*746 FILLER_0_5_257
*747 FILLER_0_5_262
*748 FILLER_0_5_27
*749 FILLER_0_5_274
*750 FILLER_0_5_281
*751 FILLER_0_5_285
*752 FILLER_0_5_297
*753 FILLER_0_5_3
*754 FILLER_0_5_309
*755 FILLER_0_5_321
*756 FILLER_0_5_327
*757 FILLER_0_5_331
*758 FILLER_0_5_335
*759 FILLER_0_5_337
*760 FILLER_0_5_349
*761 FILLER_0_5_361
*762 FILLER_0_5_373
*763 FILLER_0_5_385
*764 FILLER_0_5_39
*765 FILLER_0_5_391
*766 FILLER_0_5_393
*767 FILLER_0_5_398
*768 FILLER_0_5_410
*769 FILLER_0_5_418
*770 FILLER_0_5_423
*771 FILLER_0_5_435
*772 FILLER_0_5_447
*773 FILLER_0_5_449
*774 FILLER_0_5_457
*775 FILLER_0_5_51
*776 FILLER_0_5_55
*777 FILLER_0_5_57
*778 FILLER_0_5_69
*779 FILLER_0_5_81
*780 FILLER_0_5_93
*781 FILLER_0_6_109
*782 FILLER_0_6_121
*783 FILLER_0_6_133
*784 FILLER_0_6_139
*785 FILLER_0_6_141
*786 FILLER_0_6_15
*787 FILLER_0_6_153
*788 FILLER_0_6_165
*789 FILLER_0_6_177
*790 FILLER_0_6_189
*791 FILLER_0_6_195
*792 FILLER_0_6_197
*793 FILLER_0_6_209
*794 FILLER_0_6_221
*795 FILLER_0_6_225
*796 FILLER_0_6_242
*797 FILLER_0_6_248
*798 FILLER_0_6_253
*799 FILLER_0_6_265
*800 FILLER_0_6_27
*801 FILLER_0_6_271
*802 FILLER_0_6_283
*803 FILLER_0_6_29
*804 FILLER_0_6_294
*805 FILLER_0_6_3
*806 FILLER_0_6_306
*807 FILLER_0_6_309
*808 FILLER_0_6_321
*809 FILLER_0_6_333
*810 FILLER_0_6_340
*811 FILLER_0_6_352
*812 FILLER_0_6_365
*813 FILLER_0_6_377
*814 FILLER_0_6_385
*815 FILLER_0_6_390
*816 FILLER_0_6_398
*817 FILLER_0_6_404
*818 FILLER_0_6_41
*819 FILLER_0_6_416
*820 FILLER_0_6_421
*821 FILLER_0_6_433
*822 FILLER_0_6_445
*823 FILLER_0_6_457
*824 FILLER_0_6_53
*825 FILLER_0_6_65
*826 FILLER_0_6_77
*827 FILLER_0_6_83
*828 FILLER_0_6_85
*829 FILLER_0_6_97
*830 FILLER_0_7_105
*831 FILLER_0_7_111
*832 FILLER_0_7_113
*833 FILLER_0_7_125
*834 FILLER_0_7_137
*835 FILLER_0_7_149
*836 FILLER_0_7_15
*837 FILLER_0_7_161
*838 FILLER_0_7_167
*839 FILLER_0_7_169
*840 FILLER_0_7_181
*841 FILLER_0_7_193
*842 FILLER_0_7_205
*843 FILLER_0_7_217
*844 FILLER_0_7_223
*845 FILLER_0_7_225
*846 FILLER_0_7_237
*847 FILLER_0_7_249
*848 FILLER_0_7_261
*849 FILLER_0_7_27
*850 FILLER_0_7_273
*851 FILLER_0_7_279
*852 FILLER_0_7_281
*853 FILLER_0_7_293
*854 FILLER_0_7_3
*855 FILLER_0_7_305
*856 FILLER_0_7_317
*857 FILLER_0_7_329
*858 FILLER_0_7_335
*859 FILLER_0_7_337
*860 FILLER_0_7_349
*861 FILLER_0_7_361
*862 FILLER_0_7_373
*863 FILLER_0_7_385
*864 FILLER_0_7_39
*865 FILLER_0_7_391
*866 FILLER_0_7_393
*867 FILLER_0_7_397
*868 FILLER_0_7_409
*869 FILLER_0_7_421
*870 FILLER_0_7_433
*871 FILLER_0_7_445
*872 FILLER_0_7_449
*873 FILLER_0_7_457
*874 FILLER_0_7_51
*875 FILLER_0_7_55
*876 FILLER_0_7_57
*877 FILLER_0_7_69
*878 FILLER_0_7_81
*879 FILLER_0_7_93
*880 FILLER_0_8_109
*881 FILLER_0_8_121
*882 FILLER_0_8_133
*883 FILLER_0_8_139
*884 FILLER_0_8_141
*885 FILLER_0_8_15
*886 FILLER_0_8_153
*887 FILLER_0_8_165
*888 FILLER_0_8_177
*889 FILLER_0_8_189
*890 FILLER_0_8_195
*891 FILLER_0_8_197
*892 FILLER_0_8_209
*893 FILLER_0_8_221
*894 FILLER_0_8_233
*895 FILLER_0_8_245
*896 FILLER_0_8_251
*897 FILLER_0_8_253
*898 FILLER_0_8_265
*899 FILLER_0_8_27
*900 FILLER_0_8_277
*901 FILLER_0_8_289
*902 FILLER_0_8_29
*903 FILLER_0_8_3
*904 FILLER_0_8_301
*905 FILLER_0_8_307
*906 FILLER_0_8_309
*907 FILLER_0_8_321
*908 FILLER_0_8_333
*909 FILLER_0_8_345
*910 FILLER_0_8_357
*911 FILLER_0_8_363
*912 FILLER_0_8_365
*913 FILLER_0_8_377
*914 FILLER_0_8_389
*915 FILLER_0_8_401
*916 FILLER_0_8_41
*917 FILLER_0_8_413
*918 FILLER_0_8_419
*919 FILLER_0_8_421
*920 FILLER_0_8_433
*921 FILLER_0_8_445
*922 FILLER_0_8_457
*923 FILLER_0_8_53
*924 FILLER_0_8_65
*925 FILLER_0_8_77
*926 FILLER_0_8_83
*927 FILLER_0_8_85
*928 FILLER_0_8_97
*929 FILLER_0_9_105
*930 FILLER_0_9_111
*931 FILLER_0_9_113
*932 FILLER_0_9_125
*933 FILLER_0_9_137
*934 FILLER_0_9_149
*935 FILLER_0_9_15
*936 FILLER_0_9_161
*937 FILLER_0_9_167
*938 FILLER_0_9_169
*939 FILLER_0_9_181
*940 FILLER_0_9_193
*941 FILLER_0_9_205
*942 FILLER_0_9_217
*943 FILLER_0_9_223
*944 FILLER_0_9_225
*945 FILLER_0_9_237
*946 FILLER_0_9_249
*947 FILLER_0_9_261
*948 FILLER_0_9_27
*949 FILLER_0_9_273
*950 FILLER_0_9_279
*951 FILLER_0_9_281
*952 FILLER_0_9_293
*953 FILLER_0_9_3
*954 FILLER_0_9_305
*955 FILLER_0_9_317
*956 FILLER_0_9_329
*957 FILLER_0_9_335
*958 FILLER_0_9_337
*959 FILLER_0_9_349
*960 FILLER_0_9_361
*961 FILLER_0_9_373
*962 FILLER_0_9_385
*963 FILLER_0_9_39
*964 FILLER_0_9_391
*965 FILLER_0_9_393
*966 FILLER_0_9_405
*967 FILLER_0_9_417
*968 FILLER_0_9_429
*969 FILLER_0_9_441
*970 FILLER_0_9_447
*971 FILLER_0_9_449
*972 FILLER_0_9_457
*973 FILLER_0_9_51
*974 FILLER_0_9_55
*975 FILLER_0_9_57
*976 FILLER_0_9_69
*977 FILLER_0_9_81
*978 FILLER_0_9_93
*979 Inst_S_term_DSP_switch_matrix/_00_
*980 Inst_S_term_DSP_switch_matrix/_01_
*981 Inst_S_term_DSP_switch_matrix/_02_
*982 Inst_S_term_DSP_switch_matrix/_03_
*983 Inst_S_term_DSP_switch_matrix/_04_
*984 Inst_S_term_DSP_switch_matrix/_05_
*985 Inst_S_term_DSP_switch_matrix/_06_
*986 Inst_S_term_DSP_switch_matrix/_07_
*987 Inst_S_term_DSP_switch_matrix/_08_
*988 Inst_S_term_DSP_switch_matrix/_09_
*989 Inst_S_term_DSP_switch_matrix/_10_
*990 Inst_S_term_DSP_switch_matrix/_11_
*991 Inst_S_term_DSP_switch_matrix/_12_
*992 Inst_S_term_DSP_switch_matrix/_13_
*993 Inst_S_term_DSP_switch_matrix/_14_
*994 Inst_S_term_DSP_switch_matrix/_15_
*995 Inst_S_term_DSP_switch_matrix/_16_
*996 Inst_S_term_DSP_switch_matrix/_17_
*997 Inst_S_term_DSP_switch_matrix/_18_
*998 Inst_S_term_DSP_switch_matrix/_19_
*999 Inst_S_term_DSP_switch_matrix/_20_
*1000 Inst_S_term_DSP_switch_matrix/_21_
*1001 Inst_S_term_DSP_switch_matrix/_22_
*1002 Inst_S_term_DSP_switch_matrix/_23_
*1003 Inst_S_term_DSP_switch_matrix/_24_
*1004 Inst_S_term_DSP_switch_matrix/_25_
*1005 Inst_S_term_DSP_switch_matrix/_26_
*1006 Inst_S_term_DSP_switch_matrix/_27_
*1007 Inst_S_term_DSP_switch_matrix/_28_
*1008 Inst_S_term_DSP_switch_matrix/_29_
*1009 Inst_S_term_DSP_switch_matrix/_30_
*1010 Inst_S_term_DSP_switch_matrix/_31_
*1011 Inst_S_term_DSP_switch_matrix/_32_
*1012 Inst_S_term_DSP_switch_matrix/_33_
*1013 Inst_S_term_DSP_switch_matrix/_34_
*1014 Inst_S_term_DSP_switch_matrix/_35_
*1015 Inst_S_term_DSP_switch_matrix/_36_
*1016 Inst_S_term_DSP_switch_matrix/_37_
*1017 Inst_S_term_DSP_switch_matrix/_38_
*1018 Inst_S_term_DSP_switch_matrix/_39_
*1019 Inst_S_term_DSP_switch_matrix/_40_
*1020 Inst_S_term_DSP_switch_matrix/_41_
*1021 Inst_S_term_DSP_switch_matrix/_42_
*1022 Inst_S_term_DSP_switch_matrix/_43_
*1023 Inst_S_term_DSP_switch_matrix/_44_
*1024 Inst_S_term_DSP_switch_matrix/_45_
*1025 Inst_S_term_DSP_switch_matrix/_46_
*1026 Inst_S_term_DSP_switch_matrix/_47_
*1027 Inst_S_term_DSP_switch_matrix/_48_
*1028 Inst_S_term_DSP_switch_matrix/_49_
*1029 Inst_S_term_DSP_switch_matrix/_50_
*1030 Inst_S_term_DSP_switch_matrix/_51_
*1031 PHY_0
*1032 PHY_1
*1033 PHY_10
*1034 PHY_11
*1035 PHY_12
*1036 PHY_13
*1037 PHY_14
*1038 PHY_15
*1039 PHY_16
*1040 PHY_17
*1041 PHY_18
*1042 PHY_19
*1043 PHY_2
*1044 PHY_20
*1045 PHY_21
*1046 PHY_22
*1047 PHY_23
*1048 PHY_24
*1049 PHY_25
*1050 PHY_26
*1051 PHY_27
*1052 PHY_3
*1053 PHY_4
*1054 PHY_5
*1055 PHY_6
*1056 PHY_7
*1057 PHY_8
*1058 PHY_9
*1059 TAP_100
*1060 TAP_101
*1061 TAP_102
*1062 TAP_103
*1063 TAP_104
*1064 TAP_105
*1065 TAP_106
*1066 TAP_107
*1067 TAP_108
*1068 TAP_109
*1069 TAP_110
*1070 TAP_111
*1071 TAP_112
*1072 TAP_113
*1073 TAP_114
*1074 TAP_115
*1075 TAP_116
*1076 TAP_117
*1077 TAP_118
*1078 TAP_119
*1079 TAP_120
*1080 TAP_121
*1081 TAP_122
*1082 TAP_123
*1083 TAP_124
*1084 TAP_125
*1085 TAP_126
*1086 TAP_127
*1087 TAP_128
*1088 TAP_129
*1089 TAP_130
*1090 TAP_131
*1091 TAP_132
*1092 TAP_133
*1093 TAP_134
*1094 TAP_135
*1095 TAP_136
*1096 TAP_137
*1097 TAP_138
*1098 TAP_139
*1099 TAP_140
*1100 TAP_141
*1101 TAP_142
*1102 TAP_143
*1103 TAP_144
*1104 TAP_145
*1105 TAP_146
*1106 TAP_147
*1107 TAP_148
*1108 TAP_149
*1109 TAP_150
*1110 TAP_151
*1111 TAP_152
*1112 TAP_153
*1113 TAP_154
*1114 TAP_155
*1115 TAP_28
*1116 TAP_29
*1117 TAP_30
*1118 TAP_31
*1119 TAP_32
*1120 TAP_33
*1121 TAP_34
*1122 TAP_35
*1123 TAP_36
*1124 TAP_37
*1125 TAP_38
*1126 TAP_39
*1127 TAP_40
*1128 TAP_41
*1129 TAP_42
*1130 TAP_43
*1131 TAP_44
*1132 TAP_45
*1133 TAP_46
*1134 TAP_47
*1135 TAP_48
*1136 TAP_49
*1137 TAP_50
*1138 TAP_51
*1139 TAP_52
*1140 TAP_53
*1141 TAP_54
*1142 TAP_55
*1143 TAP_56
*1144 TAP_57
*1145 TAP_58
*1146 TAP_59
*1147 TAP_60
*1148 TAP_61
*1149 TAP_62
*1150 TAP_63
*1151 TAP_64
*1152 TAP_65
*1153 TAP_66
*1154 TAP_67
*1155 TAP_68
*1156 TAP_69
*1157 TAP_70
*1158 TAP_71
*1159 TAP_72
*1160 TAP_73
*1161 TAP_74
*1162 TAP_75
*1163 TAP_76
*1164 TAP_77
*1165 TAP_78
*1166 TAP_79
*1167 TAP_80
*1168 TAP_81
*1169 TAP_82
*1170 TAP_83
*1171 TAP_84
*1172 TAP_85
*1173 TAP_86
*1174 TAP_87
*1175 TAP_88
*1176 TAP_89
*1177 TAP_90
*1178 TAP_91
*1179 TAP_92
*1180 TAP_93
*1181 TAP_94
*1182 TAP_95
*1183 TAP_96
*1184 TAP_97
*1185 TAP_98
*1186 TAP_99
*1187 input1
*1188 input10
*1189 input11
*1190 input12
*1191 input13
*1192 input14
*1193 input15
*1194 input16
*1195 input17
*1196 input18
*1197 input19
*1198 input2
*1199 input20
*1200 input21
*1201 input22
*1202 input23
*1203 input24
*1204 input25
*1205 input26
*1206 input27
*1207 input28
*1208 input29
*1209 input3
*1210 input30
*1211 input31
*1212 input32
*1213 input33
*1214 input34
*1215 input35
*1216 input36
*1217 input37
*1218 input38
*1219 input39
*1220 input4
*1221 input40
*1222 input41
*1223 input42
*1224 input43
*1225 input44
*1226 input45
*1227 input46
*1228 input47
*1229 input48
*1230 input49
*1231 input5
*1232 input50
*1233 input51
*1234 input52
*1235 input53
*1236 input54
*1237 input55
*1238 input56
*1239 input57
*1240 input58
*1241 input59
*1242 input6
*1243 input60
*1244 input61
*1245 input62
*1246 input63
*1247 input64
*1248 input65
*1249 input66
*1250 input67
*1251 input68
*1252 input69
*1253 input7
*1254 input70
*1255 input71
*1256 input72
*1257 input73
*1258 input8
*1259 input9
*1260 inst_clk_buf
*1261 output100
*1262 output101
*1263 output102
*1264 output103
*1265 output104
*1266 output105
*1267 output106
*1268 output107
*1269 output108
*1270 output109
*1271 output110
*1272 output111
*1273 output112
*1274 output113
*1275 output114
*1276 output115
*1277 output116
*1278 output117
*1279 output118
*1280 output119
*1281 output120
*1282 output121
*1283 output122
*1284 output123
*1285 output124
*1286 output125
*1287 output126
*1288 output127
*1289 output128
*1290 output129
*1291 output130
*1292 output131
*1293 output132
*1294 output133
*1295 output134
*1296 output135
*1297 output136
*1298 output137
*1299 output138
*1300 output139
*1301 output140
*1302 output141
*1303 output142
*1304 output143
*1305 output144
*1306 output145
*1307 output146
*1308 output74
*1309 output75
*1310 output76
*1311 output77
*1312 output78
*1313 output79
*1314 output80
*1315 output81
*1316 output82
*1317 output83
*1318 output84
*1319 output85
*1320 output86
*1321 output87
*1322 output88
*1323 output89
*1324 output90
*1325 output91
*1326 output92
*1327 output93
*1328 output94
*1329 output95
*1330 output96
*1331 output97
*1332 output98
*1333 output99
*1334 strobe_inbuf_0/_0_
*1335 strobe_inbuf_1/_0_
*1336 strobe_inbuf_10/_0_
*1337 strobe_inbuf_11/_0_
*1338 strobe_inbuf_12/_0_
*1339 strobe_inbuf_13/_0_
*1340 strobe_inbuf_14/_0_
*1341 strobe_inbuf_15/_0_
*1342 strobe_inbuf_16/_0_
*1343 strobe_inbuf_17/_0_
*1344 strobe_inbuf_18/_0_
*1345 strobe_inbuf_19/_0_
*1346 strobe_inbuf_2/_0_
*1347 strobe_inbuf_3/_0_
*1348 strobe_inbuf_4/_0_
*1349 strobe_inbuf_5/_0_
*1350 strobe_inbuf_6/_0_
*1351 strobe_inbuf_7/_0_
*1352 strobe_inbuf_8/_0_
*1353 strobe_inbuf_9/_0_
*1354 strobe_outbuf_0/_0_
*1355 strobe_outbuf_1/_0_
*1356 strobe_outbuf_10/_0_
*1357 strobe_outbuf_11/_0_
*1358 strobe_outbuf_12/_0_
*1359 strobe_outbuf_13/_0_
*1360 strobe_outbuf_14/_0_
*1361 strobe_outbuf_15/_0_
*1362 strobe_outbuf_16/_0_
*1363 strobe_outbuf_17/_0_
*1364 strobe_outbuf_18/_0_
*1365 strobe_outbuf_19/_0_
*1366 strobe_outbuf_2/_0_
*1367 strobe_outbuf_3/_0_
*1368 strobe_outbuf_4/_0_
*1369 strobe_outbuf_5/_0_
*1370 strobe_outbuf_6/_0_
*1371 strobe_outbuf_7/_0_
*1372 strobe_outbuf_8/_0_
*1373 strobe_outbuf_9/_0_

*PORTS
FrameStrobe[0] I
FrameStrobe[10] I
FrameStrobe[11] I
FrameStrobe[12] I
FrameStrobe[13] I
FrameStrobe[14] I
FrameStrobe[15] I
FrameStrobe[16] I
FrameStrobe[17] I
FrameStrobe[18] I
FrameStrobe[19] I
FrameStrobe[1] I
FrameStrobe[2] I
FrameStrobe[3] I
FrameStrobe[4] I
FrameStrobe[5] I
FrameStrobe[6] I
FrameStrobe[7] I
FrameStrobe[8] I
FrameStrobe[9] I
FrameStrobe_O[0] O
FrameStrobe_O[10] O
FrameStrobe_O[11] O
FrameStrobe_O[12] O
FrameStrobe_O[13] O
FrameStrobe_O[14] O
FrameStrobe_O[15] O
FrameStrobe_O[16] O
FrameStrobe_O[17] O
FrameStrobe_O[18] O
FrameStrobe_O[19] O
FrameStrobe_O[1] O
FrameStrobe_O[2] O
FrameStrobe_O[3] O
FrameStrobe_O[4] O
FrameStrobe_O[5] O
FrameStrobe_O[6] O
FrameStrobe_O[7] O
FrameStrobe_O[8] O
FrameStrobe_O[9] O
N1BEG[0] O
N1BEG[1] O
N1BEG[2] O
N1BEG[3] O
N2BEG[0] O
N2BEG[1] O
N2BEG[2] O
N2BEG[3] O
N2BEG[4] O
N2BEG[5] O
N2BEG[6] O
N2BEG[7] O
N2BEGb[0] O
N2BEGb[1] O
N2BEGb[2] O
N2BEGb[3] O
N2BEGb[4] O
N2BEGb[5] O
N2BEGb[6] O
N2BEGb[7] O
N4BEG[0] O
N4BEG[10] O
N4BEG[11] O
N4BEG[12] O
N4BEG[13] O
N4BEG[14] O
N4BEG[15] O
N4BEG[1] O
N4BEG[2] O
N4BEG[3] O
N4BEG[4] O
N4BEG[5] O
N4BEG[6] O
N4BEG[7] O
N4BEG[8] O
N4BEG[9] O
NN4BEG[0] O
NN4BEG[10] O
NN4BEG[11] O
NN4BEG[12] O
NN4BEG[13] O
NN4BEG[14] O
NN4BEG[15] O
NN4BEG[1] O
NN4BEG[2] O
NN4BEG[3] O
NN4BEG[4] O
NN4BEG[5] O
NN4BEG[6] O
NN4BEG[7] O
NN4BEG[8] O
NN4BEG[9] O
S1END[0] I
S1END[1] I
S1END[2] I
S1END[3] I
S2END[0] I
S2END[1] I
S2END[2] I
S2END[3] I
S2END[4] I
S2END[5] I
S2END[6] I
S2END[7] I
S2MID[0] I
S2MID[1] I
S2MID[2] I
S2MID[3] I
S2MID[4] I
S2MID[5] I
S2MID[6] I
S2MID[7] I
S4END[0] I
S4END[10] I
S4END[11] I
S4END[12] I
S4END[13] I
S4END[14] I
S4END[15] I
S4END[1] I
S4END[2] I
S4END[3] I
S4END[4] I
S4END[5] I
S4END[6] I
S4END[7] I
S4END[8] I
S4END[9] I
SS4END[0] I
SS4END[10] I
SS4END[11] I
SS4END[12] I
SS4END[13] I
SS4END[14] I
SS4END[15] I
SS4END[1] I
SS4END[2] I
SS4END[3] I
SS4END[4] I
SS4END[5] I
SS4END[6] I
SS4END[7] I
SS4END[8] I
SS4END[9] I
UserCLK I
UserCLKo O

*D_NET *1 0.000671906
*CONN
*P FrameStrobe[0] I
*I *1187:A I *D sky130_fd_sc_hd__buf_1
*CAP
1 FrameStrobe[0] 0.000335953
2 *1187:A 0.000335953
*RES
1 FrameStrobe[0] *1187:A 45.2086 
*END

*D_NET *2 0.000683017
*CONN
*P FrameStrobe[10] I
*I *1198:A I *D sky130_fd_sc_hd__clkbuf_1
*CAP
1 FrameStrobe[10] 0.000334281
2 *1198:A 0.000334281
3 *1198:A *227:16 1.44546e-05
*RES
1 FrameStrobe[10] *1198:A 45.2086 
*END

*D_NET *3 0.000671906
*CONN
*P FrameStrobe[11] I
*I *1209:A I *D sky130_fd_sc_hd__clkbuf_1
*CAP
1 FrameStrobe[11] 0.000335953
2 *1209:A 0.000335953
3 *1209:A *238:14 0
*RES
1 FrameStrobe[11] *1209:A 45.2086 
*END

*D_NET *4 0.000699018
*CONN
*P FrameStrobe[12] I
*I *1220:A I *D sky130_fd_sc_hd__clkbuf_1
*CAP
1 FrameStrobe[12] 0.000346471
2 *1220:A 0.000346471
3 *1220:A *249:10 6.07611e-06
*RES
1 FrameStrobe[12] *1220:A 45.2086 
*END

*D_NET *5 0.000671906
*CONN
*P FrameStrobe[13] I
*I *1231:A I *D sky130_fd_sc_hd__clkbuf_1
*CAP
1 FrameStrobe[13] 0.000335953
2 *1231:A 0.000335953
3 *1231:A *260:14 0
*RES
1 FrameStrobe[13] *1231:A 45.2086 
*END

*D_NET *6 0.00094989
*CONN
*P FrameStrobe[14] I
*I *1242:A I *D sky130_fd_sc_hd__clkbuf_1
*CAP
1 FrameStrobe[14] 0.000474945
2 *1242:A 0.000474945
*RES
1 FrameStrobe[14] *1242:A 47.2593 
*END

*D_NET *7 0.000699018
*CONN
*P FrameStrobe[15] I
*I *1253:A I *D sky130_fd_sc_hd__clkbuf_1
*CAP
1 FrameStrobe[15] 0.000346471
2 *1253:A 0.000346471
3 *1253:A *271:16 0
4 *1253:A *282:10 6.07611e-06
*RES
1 FrameStrobe[15] *1253:A 45.2086 
*END

*D_NET *8 0.000742977
*CONN
*P FrameStrobe[16] I
*I *1258:A I *D sky130_fd_sc_hd__clkbuf_1
*CAP
1 FrameStrobe[16] 0.000368451
2 *1258:A 0.000368451
3 *1258:A *293:12 6.07611e-06
*RES
1 FrameStrobe[16] *1258:A 45.83 
*END

*D_NET *9 0.000755384
*CONN
*P FrameStrobe[17] I
*I *1259:A I *D sky130_fd_sc_hd__clkbuf_1
*CAP
1 FrameStrobe[17] 0.000377692
2 *1259:A 0.000377692
*RES
1 FrameStrobe[17] *1259:A 46.1614 
*END

*D_NET *10 0.000841641
*CONN
*P FrameStrobe[18] I
*I *1188:A I *D sky130_fd_sc_hd__clkbuf_1
*CAP
1 FrameStrobe[18] 0.000406128
2 *1188:A 0.000406128
3 *1188:A *1344:A 0
4 *1188:A *170:10 2.93845e-05
*RES
1 FrameStrobe[18] *1188:A 46.1614 
*END

*D_NET *11 0.000755384
*CONN
*P FrameStrobe[19] I
*I *1189:A I *D sky130_fd_sc_hd__clkbuf_1
*CAP
1 FrameStrobe[19] 0.000377692
2 *1189:A 0.000377692
*RES
1 FrameStrobe[19] *1189:A 46.1614 
*END

*D_NET *12 0.000699018
*CONN
*P FrameStrobe[1] I
*I *1190:A I *D sky130_fd_sc_hd__buf_1
*CAP
1 FrameStrobe[1] 0.000346471
2 *1190:A 0.000346471
3 *1190:A *192:12 6.07611e-06
*RES
1 FrameStrobe[1] *1190:A 45.2086 
*END
