*SPEF "ieee 1481-1999"
*DESIGN "S_term_RAM_IO"
*DATE "11:11:11 Fri 11 11, 1111"
*VENDOR "OpenRCX"
*PROGRAM "Parallel Extraction"
*VERSION "1.0"
*DESIGN_FLOW "NAME_SCOPE LOCAL" "PIN_CAP NONE"
*DIVIDER /
*DELIMITER :
*BUS_DELIMITER []
*T_UNIT 1 NS
*C_UNIT 1 PF
*R_UNIT 1 OHM
*L_UNIT 1 HENRY

*NAME_MAP
*1 FrameStrobe[0]
*2 FrameStrobe[10]
*3 FrameStrobe[11]
*4 FrameStrobe[12]
*5 FrameStrobe[13]
*6 FrameStrobe[14]
*7 FrameStrobe[15]
*8 FrameStrobe[16]
*9 FrameStrobe[17]
*10 FrameStrobe[18]
*11 FrameStrobe[19]
*12 FrameStrobe[1]
*13 FrameStrobe[2]
*14 FrameStrobe[3]
*15 FrameStrobe[4]
*16 FrameStrobe[5]
*17 FrameStrobe[6]
*18 FrameStrobe[7]
*19 FrameStrobe[8]
*20 FrameStrobe[9]
*21 FrameStrobe_O[0]
*22 FrameStrobe_O[10]
*23 FrameStrobe_O[11]
*24 FrameStrobe_O[12]
*25 FrameStrobe_O[13]
*26 FrameStrobe_O[14]
*27 FrameStrobe_O[15]
*28 FrameStrobe_O[16]
*29 FrameStrobe_O[17]
*30 FrameStrobe_O[18]
*31 FrameStrobe_O[19]
*32 FrameStrobe_O[1]
*33 FrameStrobe_O[2]
*34 FrameStrobe_O[3]
*35 FrameStrobe_O[4]
*36 FrameStrobe_O[5]
*37 FrameStrobe_O[6]
*38 FrameStrobe_O[7]
*39 FrameStrobe_O[8]
*40 FrameStrobe_O[9]
*41 N1BEG[0]
*42 N1BEG[1]
*43 N1BEG[2]
*44 N1BEG[3]
*45 N2BEG[0]
*46 N2BEG[1]
*47 N2BEG[2]
*48 N2BEG[3]
*49 N2BEG[4]
*50 N2BEG[5]
*51 N2BEG[6]
*52 N2BEG[7]
*53 N2BEGb[0]
*54 N2BEGb[1]
*55 N2BEGb[2]
*56 N2BEGb[3]
*57 N2BEGb[4]
*58 N2BEGb[5]
*59 N2BEGb[6]
*60 N2BEGb[7]
*61 N4BEG[0]
*62 N4BEG[10]
*63 N4BEG[11]
*64 N4BEG[12]
*65 N4BEG[13]
*66 N4BEG[14]
*67 N4BEG[15]
*68 N4BEG[1]
*69 N4BEG[2]
*70 N4BEG[3]
*71 N4BEG[4]
*72 N4BEG[5]
*73 N4BEG[6]
*74 N4BEG[7]
*75 N4BEG[8]
*76 N4BEG[9]
*77 S1END[0]
*78 S1END[1]
*79 S1END[2]
*80 S1END[3]
*81 S2END[0]
*82 S2END[1]
*83 S2END[2]
*84 S2END[3]
*85 S2END[4]
*86 S2END[5]
*87 S2END[6]
*88 S2END[7]
*89 S2MID[0]
*90 S2MID[1]
*91 S2MID[2]
*92 S2MID[3]
*93 S2MID[4]
*94 S2MID[5]
*95 S2MID[6]
*96 S2MID[7]
*97 S4END[0]
*98 S4END[10]
*99 S4END[11]
*100 S4END[12]
*101 S4END[13]
*102 S4END[14]
*103 S4END[15]
*104 S4END[1]
*105 S4END[2]
*106 S4END[3]
*107 S4END[4]
*108 S4END[5]
*109 S4END[6]
*110 S4END[7]
*111 S4END[8]
*112 S4END[9]
*113 UserCLK
*114 UserCLKo
*117 FrameStrobe_O_i\[0\]
*118 FrameStrobe_O_i\[10\]
*119 FrameStrobe_O_i\[11\]
*120 FrameStrobe_O_i\[12\]
*121 FrameStrobe_O_i\[13\]
*122 FrameStrobe_O_i\[14\]
*123 FrameStrobe_O_i\[15\]
*124 FrameStrobe_O_i\[16\]
*125 FrameStrobe_O_i\[17\]
*126 FrameStrobe_O_i\[18\]
*127 FrameStrobe_O_i\[19\]
*128 FrameStrobe_O_i\[1\]
*129 FrameStrobe_O_i\[2\]
*130 FrameStrobe_O_i\[3\]
*131 FrameStrobe_O_i\[4\]
*132 FrameStrobe_O_i\[5\]
*133 FrameStrobe_O_i\[6\]
*134 FrameStrobe_O_i\[7\]
*135 FrameStrobe_O_i\[8\]
*136 FrameStrobe_O_i\[9\]
*137 net1
*138 net10
*139 net100
*140 net101
*141 net102
*142 net103
*143 net104
*144 net105
*145 net106
*146 net107
*147 net108
*148 net109
*149 net11
*150 net110
*151 net111
*152 net112
*153 net113
*154 net114
*155 net12
*156 net13
*157 net14
*158 net15
*159 net16
*160 net17
*161 net18
*162 net19
*163 net2
*164 net20
*165 net21
*166 net22
*167 net23
*168 net24
*169 net25
*170 net26
*171 net27
*172 net28
*173 net29
*174 net3
*175 net30
*176 net31
*177 net32
*178 net33
*179 net34
*180 net35
*181 net36
*182 net37
*183 net38
*184 net39
*185 net4
*186 net40
*187 net41
*188 net42
*189 net43
*190 net44
*191 net45
*192 net46
*193 net47
*194 net48
*195 net49
*196 net5
*197 net50
*198 net51
*199 net52
*200 net53
*201 net54
*202 net55
*203 net56
*204 net57
*205 net58
*206 net59
*207 net6
*208 net60
*209 net61
*210 net62
*211 net63
*212 net64
*213 net65
*214 net66
*215 net67
*216 net68
*217 net69
*218 net7
*219 net70
*220 net71
*221 net72
*222 net73
*223 net74
*224 net75
*225 net76
*226 net77
*227 net78
*228 net79
*229 net8
*230 net80
*231 net81
*232 net82
*233 net83
*234 net84
*235 net85
*236 net86
*237 net87
*238 net88
*239 net89
*240 net9
*241 net90
*242 net91
*243 net92
*244 net93
*245 net94
*246 net95
*247 net96
*248 net97
*249 net98
*250 net99
*251 ANTENNA_1
*252 FILLER_0_0_10
*253 FILLER_0_0_111
*254 FILLER_0_0_113
*255 FILLER_0_0_121
*256 FILLER_0_0_125
*257 FILLER_0_0_133
*258 FILLER_0_0_138
*259 FILLER_0_0_14
*260 FILLER_0_0_147
*261 FILLER_0_0_153
*262 FILLER_0_0_160
*263 FILLER_0_0_172
*264 FILLER_0_0_183
*265 FILLER_0_0_191
*266 FILLER_0_0_197
*267 FILLER_0_0_205
*268 FILLER_0_0_209
*269 FILLER_0_0_217
*270 FILLER_0_0_22
*271 FILLER_0_0_222
*272 FILLER_0_0_228
*273 FILLER_0_0_235
*274 FILLER_0_0_251
*275 FILLER_0_0_27
*276 FILLER_0_0_29
*277 FILLER_0_0_40
*278 FILLER_0_0_48
*279 FILLER_0_0_53
*280 FILLER_0_0_57
*281 FILLER_0_0_6
*282 FILLER_0_0_71
*283 FILLER_0_0_77
*284 FILLER_0_0_85
*285 FILLER_0_0_92
*286 FILLER_0_0_99
*287 FILLER_0_10_109
*288 FILLER_0_10_121
*289 FILLER_0_10_133
*290 FILLER_0_10_139
*291 FILLER_0_10_141
*292 FILLER_0_10_15
*293 FILLER_0_10_153
*294 FILLER_0_10_165
*295 FILLER_0_10_172
*296 FILLER_0_10_184
*297 FILLER_0_10_197
*298 FILLER_0_10_209
*299 FILLER_0_10_221
*300 FILLER_0_10_233
*301 FILLER_0_10_237
*302 FILLER_0_10_250
*303 FILLER_0_10_27
*304 FILLER_0_10_29
*305 FILLER_0_10_3
*306 FILLER_0_10_41
*307 FILLER_0_10_53
*308 FILLER_0_10_65
*309 FILLER_0_10_7
*310 FILLER_0_10_77
*311 FILLER_0_10_83
*312 FILLER_0_10_85
*313 FILLER_0_10_97
*314 FILLER_0_11_101
*315 FILLER_0_11_109
*316 FILLER_0_11_113
*317 FILLER_0_11_125
*318 FILLER_0_11_137
*319 FILLER_0_11_149
*320 FILLER_0_11_161
*321 FILLER_0_11_167
*322 FILLER_0_11_169
*323 FILLER_0_11_178
*324 FILLER_0_11_190
*325 FILLER_0_11_202
*326 FILLER_0_11_214
*327 FILLER_0_11_22
*328 FILLER_0_11_222
*329 FILLER_0_11_225
*330 FILLER_0_11_249
*331 FILLER_0_11_28
*332 FILLER_0_11_3
*333 FILLER_0_11_40
*334 FILLER_0_11_46
*335 FILLER_0_11_50
*336 FILLER_0_11_60
*337 FILLER_0_11_69
*338 FILLER_0_11_74
*339 FILLER_0_11_84
*340 FILLER_0_11_96
*341 FILLER_0_12_116
*342 FILLER_0_12_134
*343 FILLER_0_12_141
*344 FILLER_0_12_145
*345 FILLER_0_12_167
*346 FILLER_0_12_173
*347 FILLER_0_12_179
*348 FILLER_0_12_191
*349 FILLER_0_12_206
*350 FILLER_0_12_214
*351 FILLER_0_12_251
*352 FILLER_0_12_27
*353 FILLER_0_12_29
*354 FILLER_0_12_46
*355 FILLER_0_12_70
*356 FILLER_0_12_78
*357 FILLER_0_12_85
*358 FILLER_0_13_222
*359 FILLER_0_13_249
*360 FILLER_0_13_26
*361 FILLER_0_13_29
*362 FILLER_0_13_3
*363 FILLER_0_13_57
*364 FILLER_0_13_64
*365 FILLER_0_13_85
*366 FILLER_0_1_105
*367 FILLER_0_1_111
*368 FILLER_0_1_119
*369 FILLER_0_1_126
*370 FILLER_0_1_130
*371 FILLER_0_1_139
*372 FILLER_0_1_144
*373 FILLER_0_1_15
*374 FILLER_0_1_156
*375 FILLER_0_1_162
*376 FILLER_0_1_166
*377 FILLER_0_1_169
*378 FILLER_0_1_181
*379 FILLER_0_1_193
*380 FILLER_0_1_205
*381 FILLER_0_1_217
*382 FILLER_0_1_223
*383 FILLER_0_1_225
*384 FILLER_0_1_230
*385 FILLER_0_1_251
*386 FILLER_0_1_27
*387 FILLER_0_1_3
*388 FILLER_0_1_39
*389 FILLER_0_1_51
*390 FILLER_0_1_55
*391 FILLER_0_1_57
*392 FILLER_0_1_69
*393 FILLER_0_1_74
*394 FILLER_0_1_82
*395 FILLER_0_1_87
*396 FILLER_0_2_109
*397 FILLER_0_2_121
*398 FILLER_0_2_133
*399 FILLER_0_2_139
*400 FILLER_0_2_141
*401 FILLER_0_2_15
*402 FILLER_0_2_153
*403 FILLER_0_2_165
*404 FILLER_0_2_177
*405 FILLER_0_2_189
*406 FILLER_0_2_195
*407 FILLER_0_2_197
*408 FILLER_0_2_209
*409 FILLER_0_2_221
*410 FILLER_0_2_233
*411 FILLER_0_2_245
*412 FILLER_0_2_250
*413 FILLER_0_2_27
*414 FILLER_0_2_29
*415 FILLER_0_2_3
*416 FILLER_0_2_41
*417 FILLER_0_2_53
*418 FILLER_0_2_65
*419 FILLER_0_2_77
*420 FILLER_0_2_83
*421 FILLER_0_2_85
*422 FILLER_0_2_97
*423 FILLER_0_3_105
*424 FILLER_0_3_111
*425 FILLER_0_3_113
*426 FILLER_0_3_125
*427 FILLER_0_3_137
*428 FILLER_0_3_149
*429 FILLER_0_3_15
*430 FILLER_0_3_161
*431 FILLER_0_3_167
*432 FILLER_0_3_169
*433 FILLER_0_3_181
*434 FILLER_0_3_193
*435 FILLER_0_3_205
*436 FILLER_0_3_217
*437 FILLER_0_3_223
*438 FILLER_0_3_225
*439 FILLER_0_3_233
*440 FILLER_0_3_238
*441 FILLER_0_3_244
*442 FILLER_0_3_250
*443 FILLER_0_3_27
*444 FILLER_0_3_3
*445 FILLER_0_3_39
*446 FILLER_0_3_51
*447 FILLER_0_3_55
*448 FILLER_0_3_57
*449 FILLER_0_3_69
*450 FILLER_0_3_81
*451 FILLER_0_3_93
*452 FILLER_0_4_109
*453 FILLER_0_4_121
*454 FILLER_0_4_133
*455 FILLER_0_4_139
*456 FILLER_0_4_141
*457 FILLER_0_4_15
*458 FILLER_0_4_153
*459 FILLER_0_4_165
*460 FILLER_0_4_177
*461 FILLER_0_4_181
*462 FILLER_0_4_185
*463 FILLER_0_4_193
*464 FILLER_0_4_197
*465 FILLER_0_4_209
*466 FILLER_0_4_221
*467 FILLER_0_4_233
*468 FILLER_0_4_244
*469 FILLER_0_4_27
*470 FILLER_0_4_29
*471 FILLER_0_4_3
*472 FILLER_0_4_41
*473 FILLER_0_4_53
*474 FILLER_0_4_65
*475 FILLER_0_4_77
*476 FILLER_0_4_83
*477 FILLER_0_4_85
*478 FILLER_0_4_97
*479 FILLER_0_5_105
*480 FILLER_0_5_111
*481 FILLER_0_5_113
*482 FILLER_0_5_125
*483 FILLER_0_5_137
*484 FILLER_0_5_146
*485 FILLER_0_5_15
*486 FILLER_0_5_158
*487 FILLER_0_5_166
*488 FILLER_0_5_169
*489 FILLER_0_5_181
*490 FILLER_0_5_193
*491 FILLER_0_5_205
*492 FILLER_0_5_217
*493 FILLER_0_5_223
*494 FILLER_0_5_225
*495 FILLER_0_5_237
*496 FILLER_0_5_249
*497 FILLER_0_5_27
*498 FILLER_0_5_3
*499 FILLER_0_5_39
*500 FILLER_0_5_51
*501 FILLER_0_5_55
*502 FILLER_0_5_57
*503 FILLER_0_5_69
*504 FILLER_0_5_81
*505 FILLER_0_5_93
*506 FILLER_0_6_109
*507 FILLER_0_6_121
*508 FILLER_0_6_133
*509 FILLER_0_6_139
*510 FILLER_0_6_141
*511 FILLER_0_6_15
*512 FILLER_0_6_152
*513 FILLER_0_6_164
*514 FILLER_0_6_176
*515 FILLER_0_6_188
*516 FILLER_0_6_197
*517 FILLER_0_6_209
*518 FILLER_0_6_221
*519 FILLER_0_6_233
*520 FILLER_0_6_245
*521 FILLER_0_6_251
*522 FILLER_0_6_27
*523 FILLER_0_6_29
*524 FILLER_0_6_3
*525 FILLER_0_6_41
*526 FILLER_0_6_53
*527 FILLER_0_6_65
*528 FILLER_0_6_77
*529 FILLER_0_6_83
*530 FILLER_0_6_85
*531 FILLER_0_6_97
*532 FILLER_0_7_105
*533 FILLER_0_7_111
*534 FILLER_0_7_113
*535 FILLER_0_7_125
*536 FILLER_0_7_137
*537 FILLER_0_7_149
*538 FILLER_0_7_15
*539 FILLER_0_7_161
*540 FILLER_0_7_167
*541 FILLER_0_7_169
*542 FILLER_0_7_181
*543 FILLER_0_7_193
*544 FILLER_0_7_205
*545 FILLER_0_7_217
*546 FILLER_0_7_223
*547 FILLER_0_7_225
*548 FILLER_0_7_237
*549 FILLER_0_7_249
*550 FILLER_0_7_27
*551 FILLER_0_7_3
*552 FILLER_0_7_39
*553 FILLER_0_7_51
*554 FILLER_0_7_55
*555 FILLER_0_7_57
*556 FILLER_0_7_69
*557 FILLER_0_7_81
*558 FILLER_0_7_93
*559 FILLER_0_8_109
*560 FILLER_0_8_121
*561 FILLER_0_8_133
*562 FILLER_0_8_139
*563 FILLER_0_8_141
*564 FILLER_0_8_15
*565 FILLER_0_8_153
*566 FILLER_0_8_165
*567 FILLER_0_8_177
*568 FILLER_0_8_189
*569 FILLER_0_8_195
*570 FILLER_0_8_197
*571 FILLER_0_8_209
*572 FILLER_0_8_221
*573 FILLER_0_8_233
*574 FILLER_0_8_245
*575 FILLER_0_8_27
*576 FILLER_0_8_29
*577 FILLER_0_8_3
*578 FILLER_0_8_41
*579 FILLER_0_8_53
*580 FILLER_0_8_65
*581 FILLER_0_8_77
*582 FILLER_0_8_83
*583 FILLER_0_8_85
*584 FILLER_0_8_97
*585 FILLER_0_9_105
*586 FILLER_0_9_111
*587 FILLER_0_9_113
*588 FILLER_0_9_125
*589 FILLER_0_9_137
*590 FILLER_0_9_149
*591 FILLER_0_9_161
*592 FILLER_0_9_167
*593 FILLER_0_9_169
*594 FILLER_0_9_181
*595 FILLER_0_9_193
*596 FILLER_0_9_205
*597 FILLER_0_9_21
*598 FILLER_0_9_217
*599 FILLER_0_9_223
*600 FILLER_0_9_225
*601 FILLER_0_9_237
*602 FILLER_0_9_251
*603 FILLER_0_9_33
*604 FILLER_0_9_45
*605 FILLER_0_9_53
*606 FILLER_0_9_57
*607 FILLER_0_9_69
*608 FILLER_0_9_81
*609 FILLER_0_9_9
*610 FILLER_0_9_93
*611 Inst_S_term_RAM_IO_switch_matrix/_00_
*612 Inst_S_term_RAM_IO_switch_matrix/_01_
*613 Inst_S_term_RAM_IO_switch_matrix/_02_
*614 Inst_S_term_RAM_IO_switch_matrix/_03_
*615 Inst_S_term_RAM_IO_switch_matrix/_04_
*616 Inst_S_term_RAM_IO_switch_matrix/_05_
*617 Inst_S_term_RAM_IO_switch_matrix/_06_
*618 Inst_S_term_RAM_IO_switch_matrix/_07_
*619 Inst_S_term_RAM_IO_switch_matrix/_08_
*620 Inst_S_term_RAM_IO_switch_matrix/_09_
*621 Inst_S_term_RAM_IO_switch_matrix/_10_
*622 Inst_S_term_RAM_IO_switch_matrix/_11_
*623 Inst_S_term_RAM_IO_switch_matrix/_12_
*624 Inst_S_term_RAM_IO_switch_matrix/_13_
*625 Inst_S_term_RAM_IO_switch_matrix/_14_
*626 Inst_S_term_RAM_IO_switch_matrix/_15_
*627 Inst_S_term_RAM_IO_switch_matrix/_16_
*628 Inst_S_term_RAM_IO_switch_matrix/_17_
*629 Inst_S_term_RAM_IO_switch_matrix/_18_
*630 Inst_S_term_RAM_IO_switch_matrix/_19_
*631 Inst_S_term_RAM_IO_switch_matrix/_20_
*632 Inst_S_term_RAM_IO_switch_matrix/_21_
*633 Inst_S_term_RAM_IO_switch_matrix/_22_
*634 Inst_S_term_RAM_IO_switch_matrix/_23_
*635 Inst_S_term_RAM_IO_switch_matrix/_24_
*636 Inst_S_term_RAM_IO_switch_matrix/_25_
*637 Inst_S_term_RAM_IO_switch_matrix/_26_
*638 Inst_S_term_RAM_IO_switch_matrix/_27_
*639 Inst_S_term_RAM_IO_switch_matrix/_28_
*640 Inst_S_term_RAM_IO_switch_matrix/_29_
*641 Inst_S_term_RAM_IO_switch_matrix/_30_
*642 Inst_S_term_RAM_IO_switch_matrix/_31_
*643 Inst_S_term_RAM_IO_switch_matrix/_32_
*644 Inst_S_term_RAM_IO_switch_matrix/_33_
*645 Inst_S_term_RAM_IO_switch_matrix/_34_
*646 Inst_S_term_RAM_IO_switch_matrix/_35_
*647 PHY_0
*648 PHY_1
*649 PHY_10
*650 PHY_11
*651 PHY_12
*652 PHY_13
*653 PHY_14
*654 PHY_15
*655 PHY_16
*656 PHY_17
*657 PHY_18
*658 PHY_19
*659 PHY_2
*660 PHY_20
*661 PHY_21
*662 PHY_22
*663 PHY_23
*664 PHY_24
*665 PHY_25
*666 PHY_26
*667 PHY_27
*668 PHY_3
*669 PHY_4
*670 PHY_5
*671 PHY_6
*672 PHY_7
*673 PHY_8
*674 PHY_9
*675 TAP_28
*676 TAP_29
*677 TAP_30
*678 TAP_31
*679 TAP_32
*680 TAP_33
*681 TAP_34
*682 TAP_35
*683 TAP_36
*684 TAP_37
*685 TAP_38
*686 TAP_39
*687 TAP_40
*688 TAP_41
*689 TAP_42
*690 TAP_43
*691 TAP_44
*692 TAP_45
*693 TAP_46
*694 TAP_47
*695 TAP_48
*696 TAP_49
*697 TAP_50
*698 TAP_51
*699 TAP_52
*700 TAP_53
*701 TAP_54
*702 TAP_55
*703 TAP_56
*704 TAP_57
*705 TAP_58
*706 TAP_59
*707 TAP_60
*708 TAP_61
*709 TAP_62
*710 TAP_63
*711 TAP_64
*712 TAP_65
*713 TAP_66
*714 TAP_67
*715 TAP_68
*716 TAP_69
*717 TAP_70
*718 TAP_71
*719 TAP_72
*720 TAP_73
*721 TAP_74
*722 TAP_75
*723 TAP_76
*724 TAP_77
*725 TAP_78
*726 TAP_79
*727 TAP_80
*728 TAP_81
*729 TAP_82
*730 TAP_83
*731 TAP_84
*732 TAP_85
*733 TAP_86
*734 TAP_87
*735 TAP_88
*736 TAP_89
*737 TAP_90
*738 TAP_91
*739 input1
*740 input10
*741 input11
*742 input12
*743 input13
*744 input14
*745 input15
*746 input16
*747 input17
*748 input18
*749 input19
*750 input2
*751 input20
*752 input21
*753 input22
*754 input23
*755 input24
*756 input25
*757 input26
*758 input27
*759 input28
*760 input29
*761 input3
*762 input30
*763 input31
*764 input32
*765 input33
*766 input34
*767 input35
*768 input36
*769 input37
*770 input38
*771 input39
*772 input4
*773 input40
*774 input41
*775 input42
*776 input43
*777 input44
*778 input45
*779 input46
*780 input47
*781 input48
*782 input49
*783 input5
*784 input50
*785 input51
*786 input52
*787 input53
*788 input54
*789 input55
*790 input56
*791 input57
*792 input6
*793 input7
*794 input8
*795 input9
*796 inst_clk_buf
*797 output100
*798 output101
*799 output102
*800 output103
*801 output104
*802 output105
*803 output106
*804 output107
*805 output108
*806 output109
*807 output110
*808 output111
*809 output112
*810 output113
*811 output114
*812 output58
*813 output59
*814 output60
*815 output61
*816 output62
*817 output63
*818 output64
*819 output65
*820 output66
*821 output67
*822 output68
*823 output69
*824 output70
*825 output71
*826 output72
*827 output73
*828 output74
*829 output75
*830 output76
*831 output77
*832 output78
*833 output79
*834 output80
*835 output81
*836 output82
*837 output83
*838 output84
*839 output85
*840 output86
*841 output87
*842 output88
*843 output89
*844 output90
*845 output91
*846 output92
*847 output93
*848 output94
*849 output95
*850 output96
*851 output97
*852 output98
*853 output99
*854 strobe_inbuf_0/_0_
*855 strobe_inbuf_1/_0_
*856 strobe_inbuf_10/_0_
*857 strobe_inbuf_11/_0_
*858 strobe_inbuf_12/_0_
*859 strobe_inbuf_13/_0_
*860 strobe_inbuf_14/_0_
*861 strobe_inbuf_15/_0_
*862 strobe_inbuf_16/_0_
*863 strobe_inbuf_17/_0_
*864 strobe_inbuf_18/_0_
*865 strobe_inbuf_19/_0_
*866 strobe_inbuf_2/_0_
*867 strobe_inbuf_3/_0_
*868 strobe_inbuf_4/_0_
*869 strobe_inbuf_5/_0_
*870 strobe_inbuf_6/_0_
*871 strobe_inbuf_7/_0_
*872 strobe_inbuf_8/_0_
*873 strobe_inbuf_9/_0_
*874 strobe_outbuf_0/_0_
*875 strobe_outbuf_1/_0_
*876 strobe_outbuf_10/_0_
*877 strobe_outbuf_11/_0_
*878 strobe_outbuf_12/_0_
*879 strobe_outbuf_13/_0_
*880 strobe_outbuf_14/_0_
*881 strobe_outbuf_15/_0_
*882 strobe_outbuf_16/_0_
*883 strobe_outbuf_17/_0_
*884 strobe_outbuf_18/_0_
*885 strobe_outbuf_19/_0_
*886 strobe_outbuf_2/_0_
*887 strobe_outbuf_3/_0_
*888 strobe_outbuf_4/_0_
*889 strobe_outbuf_5/_0_
*890 strobe_outbuf_6/_0_
*891 strobe_outbuf_7/_0_
*892 strobe_outbuf_8/_0_
*893 strobe_outbuf_9/_0_

*PORTS
FrameStrobe[0] I
FrameStrobe[10] I
FrameStrobe[11] I
FrameStrobe[12] I
FrameStrobe[13] I
FrameStrobe[14] I
FrameStrobe[15] I
FrameStrobe[16] I
FrameStrobe[17] I
FrameStrobe[18] I
FrameStrobe[19] I
FrameStrobe[1] I
FrameStrobe[2] I
FrameStrobe[3] I
FrameStrobe[4] I
FrameStrobe[5] I
FrameStrobe[6] I
FrameStrobe[7] I
FrameStrobe[8] I
FrameStrobe[9] I
FrameStrobe_O[0] O
FrameStrobe_O[10] O
FrameStrobe_O[11] O
FrameStrobe_O[12] O
FrameStrobe_O[13] O
FrameStrobe_O[14] O
FrameStrobe_O[15] O
FrameStrobe_O[16] O
FrameStrobe_O[17] O
FrameStrobe_O[18] O
FrameStrobe_O[19] O
FrameStrobe_O[1] O
FrameStrobe_O[2] O
FrameStrobe_O[3] O
FrameStrobe_O[4] O
FrameStrobe_O[5] O
FrameStrobe_O[6] O
FrameStrobe_O[7] O
FrameStrobe_O[8] O
FrameStrobe_O[9] O
N1BEG[0] O
N1BEG[1] O
N1BEG[2] O
N1BEG[3] O
N2BEG[0] O
N2BEG[1] O
N2BEG[2] O
N2BEG[3] O
N2BEG[4] O
N2BEG[5] O
N2BEG[6] O
N2BEG[7] O
N2BEGb[0] O
N2BEGb[1] O
N2BEGb[2] O
N2BEGb[3] O
N2BEGb[4] O
N2BEGb[5] O
N2BEGb[6] O
N2BEGb[7] O
N4BEG[0] O
N4BEG[10] O
N4BEG[11] O
N4BEG[12] O
N4BEG[13] O
N4BEG[14] O
N4BEG[15] O
N4BEG[1] O
N4BEG[2] O
N4BEG[3] O
N4BEG[4] O
N4BEG[5] O
N4BEG[6] O
N4BEG[7] O
N4BEG[8] O
N4BEG[9] O
S1END[0] I
S1END[1] I
S1END[2] I
S1END[3] I
S2END[0] I
S2END[1] I
S2END[2] I
S2END[3] I
S2END[4] I
S2END[5] I
S2END[6] I
S2END[7] I
S2MID[0] I
S2MID[1] I
S2MID[2] I
S2MID[3] I
S2MID[4] I
S2MID[5] I
S2MID[6] I
S2MID[7] I
S4END[0] I
S4END[10] I
S4END[11] I
S4END[12] I
S4END[13] I
S4END[14] I
S4END[15] I
S4END[1] I
S4END[2] I
S4END[3] I
S4END[4] I
S4END[5] I
S4END[6] I
S4END[7] I
S4END[8] I
S4END[9] I
UserCLK I
UserCLKo O

*D_NET *1 0.000624244
*CONN
*P FrameStrobe[0] I
*I *739:A I *D sky130_fd_sc_hd__buf_1
*CAP
1 FrameStrobe[0] 0.000273024
2 *739:A 0.000273024
3 *739:A *854:A 7.81954e-05
4 *739:A *204:16 0
*RES
1 FrameStrobe[0] *739:A 8.82 
*END

*D_NET *2 0.000822513
*CONN
*P FrameStrobe[10] I
*I *750:A I *D sky130_fd_sc_hd__clkbuf_1
*CAP
1 FrameStrobe[10] 0.000349578
2 *750:A 0.000349578
3 *750:A *796:A 0.000117825
4 *750:A *875:A 5.53249e-06
5 *750:A *155:26 0
*RES
1 FrameStrobe[10] *750:A 9.51 
*END

*D_NET *3 0.000722433
*CONN
*P FrameStrobe[11] I
*I *761:A I *D sky130_fd_sc_hd__clkbuf_1
*CAP
1 FrameStrobe[11] 0.000361216
2 *761:A 0.000361216
3 *761:A *154:18 0
*RES
1 FrameStrobe[11] *761:A 9.51 
*END

*D_NET *4 0.000848926
*CONN
*P FrameStrobe[12] I
*I *772:A I *D sky130_fd_sc_hd__clkbuf_1
*CAP
1 FrameStrobe[12] 0.000402268
2 *772:A 0.000402268
3 *772:A *858:A 4.43902e-05
*RES
1 FrameStrobe[12] *772:A 10.41 
*END

*D_NET *5 0.00071396
*CONN
*P FrameStrobe[13] I
*I *783:A I *D sky130_fd_sc_hd__clkbuf_1
*CAP
1 FrameStrobe[13] 0.000340688
2 *783:A 0.000340688
3 *783:A *859:A 3.25831e-05
*RES
1 FrameStrobe[13] *783:A 9.51 
*END

*D_NET *6 0.000687617
*CONN
*P FrameStrobe[14] I
*I *792:A I *D sky130_fd_sc_hd__clkbuf_1
*CAP
1 FrameStrobe[14] 0.000343809
2 *792:A 0.000343809
3 *792:A *154:18 0
*RES
1 FrameStrobe[14] *792:A 9.51 
*END

*D_NET *7 0.000690562
*CONN
*P FrameStrobe[15] I
*I *793:A I *D sky130_fd_sc_hd__clkbuf_1
*CAP
1 FrameStrobe[15] 0.000332976
2 *793:A 0.000332976
3 *793:A *860:A 2.46089e-05
4 *793:A *154:18 0
*RES
1 FrameStrobe[15] *793:A 9.51 
*END

*D_NET *8 0.000720946
*CONN
*P FrameStrobe[16] I
*I *794:A I *D sky130_fd_sc_hd__clkbuf_1
*CAP
1 FrameStrobe[16] 0.000360473
2 *794:A 0.000360473
*RES
1 FrameStrobe[16] *794:A 9.51 
*END

*D_NET *9 0.000730151
*CONN
*P FrameStrobe[17] I
*I *795:A I *D sky130_fd_sc_hd__clkbuf_1
*CAP
1 FrameStrobe[17] 0.00031762
2 *795:A 0.00031762
3 *795:A *740:A 0
4 *795:A *741:A 0
5 *795:A *860:A 7.06865e-05
6 *795:A *863:A 2.42236e-05
*RES
1 FrameStrobe[17] *795:A 9.51 
*END

*D_NET *10 0.000886905
*CONN
*P FrameStrobe[18] I
*I *740:A I *D sky130_fd_sc_hd__clkbuf_1
*CAP
1 FrameStrobe[18] 0.000443453
2 *740:A 0.000443453
3 *740:A *741:A 0
4 *795:A *740:A 0
*RES
1 FrameStrobe[18] *740:A 11.985 
*END

*D_NET *11 0.00116038
*CONN
*P FrameStrobe[19] I
*I *741:A I *D sky130_fd_sc_hd__clkbuf_1
*CAP
1 FrameStrobe[19] 0.000580189
2 *741:A 0.000580189
3 *740:A *741:A 0
4 *795:A *741:A 0
*RES
1 FrameStrobe[19] *741:A 17.065 
*END

*D_NET *12 0.00063057
*CONN
*P FrameStrobe[1] I
*I *742:A I *D sky130_fd_sc_hd__buf_1
*CAP
1 FrameStrobe[1] 0.000315285
2 *742:A 0.000315285
*RES
1 FrameStrobe[1] *742:A 8.82 
*END

*D_NET *13 0.000730433
*CONN
*P FrameStrobe[2] I
*I *743:A I *D sky130_fd_sc_hd__clkbuf_1
*CAP
1 FrameStrobe[2] 0.000344949
2 *743:A 0.000344949
3 *743:A *866:A 4.05358e-05
*RES
1 FrameStrobe[2] *743:A 9.51 
*END

*D_NET *14 0.000725313
*CONN
*P FrameStrobe[3] I
*I *744:A I *D sky130_fd_sc_hd__clkbuf_1
*CAP
1 FrameStrobe[3] 0.000343326
2 *744:A 0.000343326
3 *744:A *867:A 3.86607e-05
*RES
1 FrameStrobe[3] *744:A 9.51 
*END

*D_NET *15 0.00115486
*CONN
*P FrameStrobe[4] I
*I *745:A I *D sky130_fd_sc_hd__clkbuf_1
*CAP
1 FrameStrobe[4] 0.000423297
2 *745:A 0.000423297
3 *745:A *746:A 0
4 *745:A *854:A 0.000276441
5 *745:A *155:26 3.18219e-05
*RES
1 FrameStrobe[4] *745:A 15.445 
*END

*D_NET *16 0.00101182
*CONN
*P FrameStrobe[5] I
*I *746:A I *D sky130_fd_sc_hd__clkbuf_1
*CAP
1 FrameStrobe[5] 0.000505909
2 *746:A 0.000505909
3 *745:A *746:A 0
*RES
1 FrameStrobe[5] *746:A 11.34 
*END

*D_NET *17 0.00074314
*CONN
*P FrameStrobe[6] I
*I *747:A I *D sky130_fd_sc_hd__clkbuf_1
*CAP
1 FrameStrobe[6] 0.00037157
2 *747:A 0.00037157
3 *747:A *867:A 0
*RES
1 FrameStrobe[6] *747:A 9.51 
*END

*D_NET *18 0.00073687
*CONN
*P FrameStrobe[7] I
*I *748:A I *D sky130_fd_sc_hd__clkbuf_1
*CAP
1 FrameStrobe[7] 0.000368435
2 *748:A 0.000368435
3 *748:A *854:A 0
4 *748:A *867:A 0
*RES
1 FrameStrobe[7] *748:A 9.51 
*END

*D_NET *19 0.000732715
*CONN
*P FrameStrobe[8] I
*I *749:A I *D sky130_fd_sc_hd__clkbuf_1
*CAP
1 FrameStrobe[8] 0.000362092
2 *749:A 0.000362092
3 *749:A *751:A 0
4 *749:A *854:A 0
5 *749:A *866:A 0
6 *749:A *891:A 8.53113e-06
7 *749:A *892:A 0
*RES
1 FrameStrobe[8] *749:A 9.51 
*END

*D_NET *20 0.00080032
*CONN
*P FrameStrobe[9] I
*I *751:A I *D sky130_fd_sc_hd__clkbuf_1
*CAP
1 FrameStrobe[9] 0.00040016
2 *751:A 0.00040016
3 *751:A *866:A 0
4 *751:A *155:26 0
5 *749:A *751:A 0
*RES
1 FrameStrobe[9] *751:A 11.295 
*END

*D_NET *21 0.000933288
*CONN
*P FrameStrobe_O[0] O
*I *812:X O *D sky130_fd_sc_hd__clkbuf_4
*CAP
1 FrameStrobe_O[0] 0.000252642
2 *812:X 0.000252642
3 FrameStrobe_O[0] FrameStrobe_O[1] 0.000217328
4 FrameStrobe_O[0] UserCLKo 0.000124086
5 FrameStrobe_O[0] *812:A 8.65905e-05
*RES
1 *812:X FrameStrobe_O[0] 10.065 
*END

*D_NET *22 0.00126118
*CONN
*P FrameStrobe_O[10] O
*I *813:X O *D sky130_fd_sc_hd__clkbuf_4
*CAP
1 FrameStrobe_O[10] 0.000317816
2 *813:X 0.000317816
3 FrameStrobe_O[10] FrameStrobe_O[11] 0.000425344
4 FrameStrobe_O[10] FrameStrobe_O[12] 0
5 FrameStrobe_O[10] FrameStrobe_O[5] 4.05674e-06
6 FrameStrobe_O[10] FrameStrobe_O[9] 0.00019615
*RES
1 *813:X FrameStrobe_O[10] 11.565 
*END

*D_NET *23 0.00197331
*CONN
*P FrameStrobe_O[11] O
*I *814:X O *D sky130_fd_sc_hd__clkbuf_4
*CAP
1 FrameStrobe_O[11] 0.000479298
2 *814:X 0.000479298
3 FrameStrobe_O[11] FrameStrobe_O[12] 7.17605e-06
4 FrameStrobe_O[11] FrameStrobe_O[9] 0
5 FrameStrobe_O[11] *813:A 0.000322813
6 FrameStrobe_O[11] *816:A 5.39718e-05
7 FrameStrobe_O[11] *818:A 9.71067e-05
8 FrameStrobe_O[11] *819:A 9.28188e-05
9 FrameStrobe_O[11] *822:A 0
10 FrameStrobe_O[11] *827:A 1.54862e-05
11 FrameStrobe_O[10] FrameStrobe_O[11] 0.000425344
*RES
1 *814:X FrameStrobe_O[11] 16.53 
*END

*D_NET *24 0.00256335
*CONN
*P FrameStrobe_O[12] O
*I *815:X O *D sky130_fd_sc_hd__clkbuf_4
*CAP
1 FrameStrobe_O[12] 0.000515733
2 *815:X 0.000515733
3 FrameStrobe_O[12] FrameStrobe_O[13] 0.00103565
4 FrameStrobe_O[12] *813:A 3.9168e-05
5 FrameStrobe_O[12] *831:A 0.000449888
6 FrameStrobe_O[10] FrameStrobe_O[12] 0
7 FrameStrobe_O[11] FrameStrobe_O[12] 7.17605e-06
*RES
1 *815:X FrameStrobe_O[12] 18.45 
*END

*D_NET *25 0.00249545
*CONN
*P FrameStrobe_O[13] O
*I *816:X O *D sky130_fd_sc_hd__clkbuf_4
*CAP
1 FrameStrobe_O[13] 0.00049544
2 *816:X 0.00049544
3 FrameStrobe_O[13] FrameStrobe_O[14] 0.000374013
4 FrameStrobe_O[13] FrameStrobe_O[15] 1.08758e-05
5 FrameStrobe_O[13] *818:A 8.40269e-05
6 FrameStrobe_O[12] FrameStrobe_O[13] 0.00103565
*RES
1 *816:X FrameStrobe_O[13] 18.255 
*END

*D_NET *26 0.00151173
*CONN
*P FrameStrobe_O[14] O
*I *817:X O *D sky130_fd_sc_hd__clkbuf_4
*CAP
1 FrameStrobe_O[14] 0.00030731
2 *817:X 0.00030731
3 FrameStrobe_O[14] FrameStrobe_O[15] 0.000400765
4 FrameStrobe_O[14] FrameStrobe_O[16] 0.000122331
5 FrameStrobe_O[13] FrameStrobe_O[14] 0.000374013
*RES
1 *817:X FrameStrobe_O[14] 13.59 
*END

*D_NET *27 0.00176507
*CONN
*P FrameStrobe_O[15] O
*I *818:X O *D sky130_fd_sc_hd__clkbuf_4
*CAP
1 FrameStrobe_O[15] 0.000604504
2 *818:X 0.000604504
3 FrameStrobe_O[15] FrameStrobe_O[16] 0.000144418
4 FrameStrobe_O[13] FrameStrobe_O[15] 1.08758e-05
5 FrameStrobe_O[14] FrameStrobe_O[15] 0.000400765
*RES
1 *818:X FrameStrobe_O[15] 17.04 
*END

*D_NET *28 0.00224451
*CONN
*P FrameStrobe_O[16] O
*I *819:X O *D sky130_fd_sc_hd__clkbuf_4
*CAP
1 FrameStrobe_O[16] 0.000625169
2 *819:X 0.000625169
3 FrameStrobe_O[16] FrameStrobe_O[17] 0.000727421
4 FrameStrobe_O[14] FrameStrobe_O[16] 0.000122331
5 FrameStrobe_O[15] FrameStrobe_O[16] 0.000144418
*RES
1 *819:X FrameStrobe_O[16] 18.645 
*END

*D_NET *29 0.00258342
*CONN
*P FrameStrobe_O[17] O
*I *820:X O *D sky130_fd_sc_hd__clkbuf_4
*CAP
1 FrameStrobe_O[17] 0.000738852
2 *820:X 0.000738852
3 FrameStrobe_O[17] FrameStrobe_O[18] 0.0003783
4 FrameStrobe_O[17] FrameStrobe_O[19] 0
5 FrameStrobe_O[16] FrameStrobe_O[17] 0.000727421
*RES
1 *820:X FrameStrobe_O[17] 21.6 
*END

*D_NET *30 0.00241937
*CONN
*P FrameStrobe_O[18] O
*I *821:X O *D sky130_fd_sc_hd__clkbuf_4
*CAP
1 FrameStrobe_O[18] 0.000870576
2 *821:X 0.000870576
3 FrameStrobe_O[18] FrameStrobe_O[19] 0.000299916
4 FrameStrobe_O[17] FrameStrobe_O[18] 0.0003783
*RES
1 *821:X FrameStrobe_O[18] 22.815 
*END

*D_NET *31 0.00301521
*CONN
*P FrameStrobe_O[19] O
*I *822:X O *D sky130_fd_sc_hd__clkbuf_4
*CAP
1 FrameStrobe_O[19] 0.000977057
2 *822:X 0.000977057
3 FrameStrobe_O[19] FrameStrobe_O[6] 5.34747e-05
4 FrameStrobe_O[19] FrameStrobe_O[7] 8.27108e-05
5 FrameStrobe_O[19] FrameStrobe_O[8] 6.47326e-05
6 FrameStrobe_O[19] FrameStrobe_O[9] 0.000157968
7 FrameStrobe_O[19] *822:A 0.000200782
8 FrameStrobe_O[19] *830:A 0.000201508
9 FrameStrobe_O[17] FrameStrobe_O[19] 0
10 FrameStrobe_O[18] FrameStrobe_O[19] 0.000299916
*RES
1 *822:X FrameStrobe_O[19] 24.735 
*END

*D_NET *32 0.00125141
*CONN
*P FrameStrobe_O[1] O
*I *823:X O *D sky130_fd_sc_hd__clkbuf_4
*CAP
1 FrameStrobe_O[1] 0.000338724
2 *823:X 0.000338724
3 FrameStrobe_O[1] FrameStrobe_O[2] 0.000194508
4 FrameStrobe_O[1] FrameStrobe_O[3] 7.67415e-06
5 FrameStrobe_O[1] *777:A 0
6 FrameStrobe_O[1] *811:A 0
7 FrameStrobe_O[1] *812:A 3.64998e-06
8 FrameStrobe_O[1] *823:A 0.000123278
9 FrameStrobe_O[1] *825:A 2.75229e-05
10 FrameStrobe_O[0] FrameStrobe_O[1] 0.000217328
*RES
1 *823:X FrameStrobe_O[1] 12.255 
*END

*D_NET *33 0.00129345
*CONN
*P FrameStrobe_O[2] O
*I *824:X O *D sky130_fd_sc_hd__buf_2
*CAP
1 FrameStrobe_O[2] 0.000365694
2 *824:X 0.000365694
3 FrameStrobe_O[2] FrameStrobe_O[3] 0.000184268
4 FrameStrobe_O[2] FrameStrobe_O[4] 0
5 FrameStrobe_O[2] FrameStrobe_O[5] 0
6 FrameStrobe_O[2] *823:A 0.000139245
7 FrameStrobe_O[2] *824:A 4.40446e-05
8 FrameStrobe_O[2] *825:A 0
9 FrameStrobe_O[1] FrameStrobe_O[2] 0.000194508
*RES
1 *824:X FrameStrobe_O[2] 12.24 
*END

*D_NET *34 0.0014635
*CONN
*P FrameStrobe_O[3] O
*I *825:X O *D sky130_fd_sc_hd__clkbuf_4
*CAP
1 FrameStrobe_O[3] 0.000384676
2 *825:X 0.000384676
3 FrameStrobe_O[3] FrameStrobe_O[4] 0.00045201
4 FrameStrobe_O[3] *823:A 7.00889e-06
5 FrameStrobe_O[3] *825:A 4.31857e-05
6 FrameStrobe_O[1] FrameStrobe_O[3] 7.67415e-06
7 FrameStrobe_O[2] FrameStrobe_O[3] 0.000184268
*RES
1 *825:X FrameStrobe_O[3] 11.925 
*END

*D_NET *35 0.00163311
*CONN
*P FrameStrobe_O[4] O
*I *826:X O *D sky130_fd_sc_hd__clkbuf_4
*CAP
1 FrameStrobe_O[4] 0.00032791
2 *826:X 0.00032791
3 FrameStrobe_O[4] FrameStrobe_O[5] 0.000291716
4 FrameStrobe_O[4] *825:A 0.000233565
5 FrameStrobe_O[2] FrameStrobe_O[4] 0
6 FrameStrobe_O[3] FrameStrobe_O[4] 0.00045201
*RES
1 *826:X FrameStrobe_O[4] 13.575 
*END

*D_NET *36 0.00171444
*CONN
*P FrameStrobe_O[5] O
*I *827:X O *D sky130_fd_sc_hd__clkbuf_4
*CAP
1 FrameStrobe_O[5] 0.000571269
2 *827:X 0.000571269
3 FrameStrobe_O[5] FrameStrobe_O[6] 0.000207128
4 FrameStrobe_O[5] *825:A 6.90044e-05
5 FrameStrobe_O[10] FrameStrobe_O[5] 4.05674e-06
6 FrameStrobe_O[2] FrameStrobe_O[5] 0
7 FrameStrobe_O[4] FrameStrobe_O[5] 0.000291716
*RES
1 *827:X FrameStrobe_O[5] 15.36 
*END

*D_NET *37 0.00112229
*CONN
*P FrameStrobe_O[6] O
*I *828:X O *D sky130_fd_sc_hd__clkbuf_4
*CAP
1 FrameStrobe_O[6] 0.000307937
2 *828:X 0.000307937
3 FrameStrobe_O[6] FrameStrobe_O[7] 0.000245811
4 FrameStrobe_O[6] *825:A 0
5 FrameStrobe_O[19] FrameStrobe_O[6] 5.34747e-05
6 FrameStrobe_O[5] FrameStrobe_O[6] 0.000207128
*RES
1 *828:X FrameStrobe_O[6] 11.55 
*END

*D_NET *38 0.00128513
*CONN
*P FrameStrobe_O[7] O
*I *829:X O *D sky130_fd_sc_hd__clkbuf_4
*CAP
1 FrameStrobe_O[7] 0.000465298
2 *829:X 0.000465298
3 FrameStrobe_O[7] FrameStrobe_O[8] 7.17605e-06
4 FrameStrobe_O[7] *826:A 1.88358e-05
5 FrameStrobe_O[19] FrameStrobe_O[7] 8.27108e-05
6 FrameStrobe_O[6] FrameStrobe_O[7] 0.000245811
*RES
1 *829:X FrameStrobe_O[7] 12.69 
*END

*D_NET *39 0.00168151
*CONN
*P FrameStrobe_O[8] O
*I *830:X O *D sky130_fd_sc_hd__clkbuf_4
*CAP
1 FrameStrobe_O[8] 0.000599191
2 *830:X 0.000599191
3 FrameStrobe_O[8] FrameStrobe_O[9] 0.000388883
4 FrameStrobe_O[8] *826:A 2.23342e-05
5 FrameStrobe_O[19] FrameStrobe_O[8] 6.47326e-05
6 FrameStrobe_O[7] FrameStrobe_O[8] 7.17605e-06
*RES
1 *830:X FrameStrobe_O[8] 15.09 
*END

*D_NET *40 0.00179809
*CONN
*P FrameStrobe_O[9] O
*I *831:X O *D sky130_fd_sc_hd__clkbuf_4
*CAP
1 FrameStrobe_O[9] 0.000506851